version 3
run dynamic1-0-20230201-17:03:54-17148
attr configname dynamic1
attr datetime 20230201-17:03:54
attr datetimef 20230201-170354
attr experiment dynamic1
attr inifile ospfR.ini
attr iterationvars ""
attr iterationvarsd ""
attr iterationvarsf ""
attr measurement ""
attr network inet.examples.OspfRouting.OspfRouting
attr processid 17148
attr repetition 0
attr replication #0
attr resultdir results
attr runnumber 0
attr seedset 0
config image-path ../../images
config description "connect/disconnect link (dynamic topology)"
config *.scenarioManager.script "xmldoc(\"scenario1.xml\")"
config network inet.examples.OspfRouting.OspfRouting
config description "Enabling the visualization"
config **.visualizer true
config sim-time-limit 500s
config **.H1.numUdpApps 1
config **.H2.numUdpApps 1
config **.H1.display-name Giang
config **.H2.display-name Trang
config **.configurator.config "xmldoc(\"Rconfig.xml\")"
config **.ospf.ospfConfig "xmldoc(\"RASConfig.xml\")"
config **.configurator.addStaticRoutes false
config **.configurator.addDefaultRoutes false
config **.configurator.addSubnetRoutes false
config **.configurator.dumpRoutes true
config **.H2.app[0].destAddresses "\"H1\""
config **.H1.app[0].destAddresses "\"H2\""
config **.app[0].startTime 100s
config **.app[0].stopTime "this.startTime + 420s"
config **.app[0].messageLength "32 bytes"
config **.pingApp[*].sendInterval 1000ms
config **.arp.cacheTimeout 1s
config **.app[0].typename UdpBasicApp
config **.app[0].destPort 1234
config **.app[1].localPort 1234
config **.app[1].typename UdpEchoApp

par OspfRouting.R1.ethg$o[0].channel typename "\"inet.examples.OspfRouting.OspfRouting.LINK_100\""
par OspfRouting.R1.ethg$o[0].channel disabled false
attr mutable ""
par OspfRouting.R1.ethg$o[0].channel delay 1e-07s
attr mutable ""
attr unit s
par OspfRouting.R1.ethg$o[0].channel datarate 1e+08bps
attr mutable ""
attr unit bps
par OspfRouting.R1.ethg$o[0].channel ber 0
attr mutable ""
par OspfRouting.R1.ethg$o[0].channel per 0
attr mutable ""
par OspfRouting.R1.ethg$o[0].channel displayAsTooltip false
par OspfRouting.R1.ethg$o[0].channel thruputDisplayFormat "\"#N\""
par OspfRouting.R4.ethg$o[0].channel typename "\"inet.examples.OspfRouting.OspfRouting.LINK_100\""
par OspfRouting.R4.ethg$o[0].channel disabled false
attr mutable ""
par OspfRouting.R4.ethg$o[0].channel delay 1e-07s
attr mutable ""
attr unit s
par OspfRouting.R4.ethg$o[0].channel datarate 1e+08bps
attr mutable ""
attr unit bps
par OspfRouting.R4.ethg$o[0].channel ber 0
attr mutable ""
par OspfRouting.R4.ethg$o[0].channel per 0
attr mutable ""
par OspfRouting.R4.ethg$o[0].channel displayAsTooltip false
par OspfRouting.R4.ethg$o[0].channel thruputDisplayFormat "\"#N\""
par OspfRouting.R1.ethg$o[1].channel typename "\"inet.examples.OspfRouting.OspfRouting.LINK_100\""
par OspfRouting.R1.ethg$o[1].channel disabled false
attr mutable ""
par OspfRouting.R1.ethg$o[1].channel delay 1e-07s
attr mutable ""
attr unit s
par OspfRouting.R1.ethg$o[1].channel datarate 1e+08bps
attr mutable ""
attr unit bps
par OspfRouting.R1.ethg$o[1].channel ber 0
attr mutable ""
par OspfRouting.R1.ethg$o[1].channel per 0
attr mutable ""
par OspfRouting.R1.ethg$o[1].channel displayAsTooltip false
par OspfRouting.R1.ethg$o[1].channel thruputDisplayFormat "\"#N\""
par OspfRouting.R2.ethg$o[1].channel typename "\"inet.examples.OspfRouting.OspfRouting.LINK_100\""
par OspfRouting.R2.ethg$o[1].channel disabled false
attr mutable ""
par OspfRouting.R2.ethg$o[1].channel delay 1e-07s
attr mutable ""
attr unit s
par OspfRouting.R2.ethg$o[1].channel datarate 1e+08bps
attr mutable ""
attr unit bps
par OspfRouting.R2.ethg$o[1].channel ber 0
attr mutable ""
par OspfRouting.R2.ethg$o[1].channel per 0
attr mutable ""
par OspfRouting.R2.ethg$o[1].channel displayAsTooltip false
par OspfRouting.R2.ethg$o[1].channel thruputDisplayFormat "\"#N\""
par OspfRouting.R2.ethg$o[0].channel typename "\"inet.examples.OspfRouting.OspfRouting.LINK_100\""
par OspfRouting.R2.ethg$o[0].channel disabled false
attr mutable ""
par OspfRouting.R2.ethg$o[0].channel delay 1e-07s
attr mutable ""
attr unit s
par OspfRouting.R2.ethg$o[0].channel datarate 1e+08bps
attr mutable ""
attr unit bps
par OspfRouting.R2.ethg$o[0].channel ber 0
attr mutable ""
par OspfRouting.R2.ethg$o[0].channel per 0
attr mutable ""
par OspfRouting.R2.ethg$o[0].channel displayAsTooltip false
par OspfRouting.R2.ethg$o[0].channel thruputDisplayFormat "\"#N\""
par OspfRouting.R3.ethg$o[0].channel typename "\"inet.examples.OspfRouting.OspfRouting.LINK_100\""
par OspfRouting.R3.ethg$o[0].channel disabled false
attr mutable ""
par OspfRouting.R3.ethg$o[0].channel delay 1e-07s
attr mutable ""
attr unit s
par OspfRouting.R3.ethg$o[0].channel datarate 1e+08bps
attr mutable ""
attr unit bps
par OspfRouting.R3.ethg$o[0].channel ber 0
attr mutable ""
par OspfRouting.R3.ethg$o[0].channel per 0
attr mutable ""
par OspfRouting.R3.ethg$o[0].channel displayAsTooltip false
par OspfRouting.R3.ethg$o[0].channel thruputDisplayFormat "\"#N\""
par OspfRouting.R3.ethg$o[1].channel typename "\"inet.examples.OspfRouting.OspfRouting.LINK_100\""
par OspfRouting.R3.ethg$o[1].channel disabled false
attr mutable ""
par OspfRouting.R3.ethg$o[1].channel delay 1e-07s
attr mutable ""
attr unit s
par OspfRouting.R3.ethg$o[1].channel datarate 1e+08bps
attr mutable ""
attr unit bps
par OspfRouting.R3.ethg$o[1].channel ber 0
attr mutable ""
par OspfRouting.R3.ethg$o[1].channel per 0
attr mutable ""
par OspfRouting.R3.ethg$o[1].channel displayAsTooltip false
par OspfRouting.R3.ethg$o[1].channel thruputDisplayFormat "\"#N\""
par OspfRouting.R4.ethg$o[1].channel typename "\"inet.examples.OspfRouting.OspfRouting.LINK_100\""
par OspfRouting.R4.ethg$o[1].channel disabled false
attr mutable ""
par OspfRouting.R4.ethg$o[1].channel delay 1e-07s
attr mutable ""
attr unit s
par OspfRouting.R4.ethg$o[1].channel datarate 1e+08bps
attr mutable ""
attr unit bps
par OspfRouting.R4.ethg$o[1].channel ber 0
attr mutable ""
par OspfRouting.R4.ethg$o[1].channel per 0
attr mutable ""
par OspfRouting.R4.ethg$o[1].channel displayAsTooltip false
par OspfRouting.R4.ethg$o[1].channel thruputDisplayFormat "\"#N\""
par OspfRouting.R1.ethg$o[2].channel typename "\"inet.examples.OspfRouting.OspfRouting.LINK_100\""
par OspfRouting.R1.ethg$o[2].channel disabled false
attr mutable ""
par OspfRouting.R1.ethg$o[2].channel delay 1e-07s
attr mutable ""
attr unit s
par OspfRouting.R1.ethg$o[2].channel datarate 1e+08bps
attr mutable ""
attr unit bps
par OspfRouting.R1.ethg$o[2].channel ber 0
attr mutable ""
par OspfRouting.R1.ethg$o[2].channel per 0
attr mutable ""
par OspfRouting.R1.ethg$o[2].channel displayAsTooltip false
par OspfRouting.R1.ethg$o[2].channel thruputDisplayFormat "\"#N\""
par OspfRouting.SW1.ethg$o[0].channel typename "\"inet.examples.OspfRouting.OspfRouting.LINK_100\""
par OspfRouting.SW1.ethg$o[0].channel disabled false
attr mutable ""
par OspfRouting.SW1.ethg$o[0].channel delay 1e-07s
attr mutable ""
attr unit s
par OspfRouting.SW1.ethg$o[0].channel datarate 1e+08bps
attr mutable ""
attr unit bps
par OspfRouting.SW1.ethg$o[0].channel ber 0
attr mutable ""
par OspfRouting.SW1.ethg$o[0].channel per 0
attr mutable ""
par OspfRouting.SW1.ethg$o[0].channel displayAsTooltip false
par OspfRouting.SW1.ethg$o[0].channel thruputDisplayFormat "\"#N\""
par OspfRouting.R3.ethg$o[2].channel typename "\"inet.examples.OspfRouting.OspfRouting.LINK_100\""
par OspfRouting.R3.ethg$o[2].channel disabled false
attr mutable ""
par OspfRouting.R3.ethg$o[2].channel delay 1e-07s
attr mutable ""
attr unit s
par OspfRouting.R3.ethg$o[2].channel datarate 1e+08bps
attr mutable ""
attr unit bps
par OspfRouting.R3.ethg$o[2].channel ber 0
attr mutable ""
par OspfRouting.R3.ethg$o[2].channel per 0
attr mutable ""
par OspfRouting.R3.ethg$o[2].channel displayAsTooltip false
par OspfRouting.R3.ethg$o[2].channel thruputDisplayFormat "\"#N\""
par OspfRouting.SW2.ethg$o[0].channel typename "\"inet.examples.OspfRouting.OspfRouting.LINK_100\""
par OspfRouting.SW2.ethg$o[0].channel disabled false
attr mutable ""
par OspfRouting.SW2.ethg$o[0].channel delay 1e-07s
attr mutable ""
attr unit s
par OspfRouting.SW2.ethg$o[0].channel datarate 1e+08bps
attr mutable ""
attr unit bps
par OspfRouting.SW2.ethg$o[0].channel ber 0
attr mutable ""
par OspfRouting.SW2.ethg$o[0].channel per 0
attr mutable ""
par OspfRouting.SW2.ethg$o[0].channel displayAsTooltip false
par OspfRouting.SW2.ethg$o[0].channel thruputDisplayFormat "\"#N\""
par OspfRouting.SW1.ethg$o[1].channel typename "\"inet.examples.OspfRouting.OspfRouting.LINK_100\""
par OspfRouting.SW1.ethg$o[1].channel disabled false
attr mutable ""
par OspfRouting.SW1.ethg$o[1].channel delay 1e-07s
attr mutable ""
attr unit s
par OspfRouting.SW1.ethg$o[1].channel datarate 1e+08bps
attr mutable ""
attr unit bps
par OspfRouting.SW1.ethg$o[1].channel ber 0
attr mutable ""
par OspfRouting.SW1.ethg$o[1].channel per 0
attr mutable ""
par OspfRouting.SW1.ethg$o[1].channel displayAsTooltip false
par OspfRouting.SW1.ethg$o[1].channel thruputDisplayFormat "\"#N\""
par OspfRouting.H1.ethg$o[0].channel typename "\"inet.examples.OspfRouting.OspfRouting.LINK_100\""
par OspfRouting.H1.ethg$o[0].channel disabled false
attr mutable ""
par OspfRouting.H1.ethg$o[0].channel delay 1e-07s
attr mutable ""
attr unit s
par OspfRouting.H1.ethg$o[0].channel datarate 1e+08bps
attr mutable ""
attr unit bps
par OspfRouting.H1.ethg$o[0].channel ber 0
attr mutable ""
par OspfRouting.H1.ethg$o[0].channel per 0
attr mutable ""
par OspfRouting.H1.ethg$o[0].channel displayAsTooltip false
par OspfRouting.H1.ethg$o[0].channel thruputDisplayFormat "\"#N\""
par OspfRouting.SW2.ethg$o[1].channel typename "\"inet.examples.OspfRouting.OspfRouting.LINK_100\""
par OspfRouting.SW2.ethg$o[1].channel disabled false
attr mutable ""
par OspfRouting.SW2.ethg$o[1].channel delay 1e-07s
attr mutable ""
attr unit s
par OspfRouting.SW2.ethg$o[1].channel datarate 1e+08bps
attr mutable ""
attr unit bps
par OspfRouting.SW2.ethg$o[1].channel ber 0
attr mutable ""
par OspfRouting.SW2.ethg$o[1].channel per 0
attr mutable ""
par OspfRouting.SW2.ethg$o[1].channel displayAsTooltip false
par OspfRouting.SW2.ethg$o[1].channel thruputDisplayFormat "\"#N\""
par OspfRouting.H2.ethg$o[0].channel typename "\"inet.examples.OspfRouting.OspfRouting.LINK_100\""
par OspfRouting.H2.ethg$o[0].channel disabled false
attr mutable ""
par OspfRouting.H2.ethg$o[0].channel delay 1e-07s
attr mutable ""
attr unit s
par OspfRouting.H2.ethg$o[0].channel datarate 1e+08bps
attr mutable ""
attr unit bps
par OspfRouting.H2.ethg$o[0].channel ber 0
attr mutable ""
par OspfRouting.H2.ethg$o[0].channel per 0
attr mutable ""
par OspfRouting.H2.ethg$o[0].channel displayAsTooltip false
par OspfRouting.H2.ethg$o[0].channel thruputDisplayFormat "\"#N\""
par OspfRouting.H1.ethg$i[0].channel typename "\"ned.IdealChannel\""
par OspfRouting.H1.eth[0].phys$o.channel typename "\"ned.IdealChannel\""
par OspfRouting.H1.interfaceTable typename "\"inet.networklayer.common.InterfaceTable\""
par OspfRouting.H1.interfaceTable displayAddresses false
par OspfRouting.H1.cb typename "\"inet.common.MessageDispatcher\""
par OspfRouting.H1.cb displayStringTextFormat "\"processed %p pk (%l)\""
par OspfRouting.H1.cb forwardServiceRegistration true
par OspfRouting.H1.cb forwardProtocolRegistration true
par OspfRouting.H1.bl typename "\"inet.common.MessageDispatcher\""
par OspfRouting.H1.bl displayStringTextFormat "\"processed %p pk (%l)\""
par OspfRouting.H1.bl forwardServiceRegistration true
par OspfRouting.H1.bl forwardProtocolRegistration true
par OspfRouting.H1.ethernet typename "\"inet.linklayer.ethernet.basic.EthernetEncapsulation\""
par OspfRouting.H1.ethernet registerProtocol true
par OspfRouting.H1.ethernet interfaceTableModule "\"OspfRouting.H1.interfaceTable\""
par OspfRouting.H1.ethernet fcsMode "\"declared\""
attr enum declared,computed
par OspfRouting.H1.ethernet stopOperationExtraTime -1s
attr unit s
par OspfRouting.H1.ethernet stopOperationTimeout 2s
attr unit s
scalar OspfRouting.H1.ethernet decapPk:count 1
attr interpolationmode none
attr moduledisplaypath OspfRouting.Giang.ethernet
attr recordingmode count
attr source decapPk
attr title "packets decapsulated, count"
scalar OspfRouting.H1.ethernet decapPk:sum(packetBytes) 64
attr interpolationmode none
attr moduledisplaypath OspfRouting.Giang.ethernet
attr recordingmode sum(packetBytes)
attr source decapPk
attr title "packets decapsulated, sum(packetBytes)"
scalar OspfRouting.H1.ethernet encapPk:count 0
attr interpolationmode none
attr moduledisplaypath OspfRouting.Giang.ethernet
attr recordingmode count
attr source encapPk
attr title "packets encapsulated, count"
scalar OspfRouting.H1.ethernet encapPk:sum(packetBytes) 0
attr interpolationmode none
attr moduledisplaypath OspfRouting.Giang.ethernet
attr recordingmode sum(packetBytes)
attr source encapPk
attr title "packets encapsulated, sum(packetBytes)"
scalar OspfRouting.H1.ethernet pauseSent:count 0
attr moduledisplaypath OspfRouting.Giang.ethernet
attr recordingmode count
attr title "pause sent, count"
scalar OspfRouting.H1.ethernet pauseSent:sum 0
attr moduledisplaypath OspfRouting.Giang.ethernet
attr recordingmode sum
attr title "pause sent, sum"
par OspfRouting.H1.li typename "\"inet.common.MessageDispatcher\""
par OspfRouting.H1.li displayStringTextFormat "\"processed %p pk (%l)\""
par OspfRouting.H1.li forwardServiceRegistration true
par OspfRouting.H1.li forwardProtocolRegistration true
par OspfRouting.H1.lo[0].upperLayerIn.channel typename "\"ned.IdealChannel\""
par OspfRouting.H1.lo[0].lo.upperLayerOut.channel typename "\"ned.IdealChannel\""
par OspfRouting.H1.lo[0].lo typename "\"inet.linklayer.loopback.Loopback\""
par OspfRouting.H1.lo[0].lo interfaceTableModule "\"OspfRouting.H1.interfaceTable\""
par OspfRouting.H1.lo[0].lo mtu 4470B
attr unit B
scalar OspfRouting.H1.lo[0].lo rcvdPkFromHl:count 0
attr interpolationmode none
attr moduledisplaypath OspfRouting.Giang.lo[0].lo
attr recordingmode count
attr source packetReceivedFromUpper
attr title "packets received from higher layer, count"
scalar OspfRouting.H1.lo[0].lo rcvdPkFromHl:sum(packetBytes) 0
attr interpolationmode none
attr moduledisplaypath OspfRouting.Giang.lo[0].lo
attr recordingmode sum(packetBytes)
attr source packetReceivedFromUpper
attr title "packets received from higher layer, sum(packetBytes)"
scalar OspfRouting.H1.lo[0].lo passedUpPk:count 0
attr interpolationmode none
attr moduledisplaypath OspfRouting.Giang.lo[0].lo
attr recordingmode count
attr source packetSentToUpper
attr title "packets passed to higher layer, count"
scalar OspfRouting.H1.lo[0].lo passedUpPk:sum(packetBytes) 0
attr interpolationmode none
attr moduledisplaypath OspfRouting.Giang.lo[0].lo
attr recordingmode sum(packetBytes)
attr source packetSentToUpper
attr title "packets passed to higher layer, sum(packetBytes)"
par OspfRouting.H1.lo[0] typename "\"inet.linklayer.loopback.LoopbackInterface\""
par OspfRouting.H1.lo[0] displayStringTextFormat "\"%a (%i)\\n%m\""
par OspfRouting.H1.lo[0] recordPcap false
par OspfRouting.H1.lo[0] numPcapRecorders 0
par OspfRouting.H1.lo[0] interfaceTableModule "\"OspfRouting.H1.interfaceTable\""
scalar OspfRouting.H1.lo[0] packetDropInterfaceDown:count 0
attr interpolationmode none
attr moduledisplaypath OspfRouting.Giang.lo[0]
attr recordingmode count
attr source packetDropReasonIsInterfaceDown(packetDropped)
attr title "packet drops: interface down, count"
scalar OspfRouting.H1.lo[0] packetDropInterfaceDown:sum(packetBytes) 0
attr interpolationmode none
attr moduledisplaypath OspfRouting.Giang.lo[0]
attr recordingmode sum(packetBytes)
attr source packetDropReasonIsInterfaceDown(packetDropped)
attr title "packet drops: interface down, sum(packetBytes)"
scalar OspfRouting.H1.lo[0] packetDropNoCarrier:count 0
attr interpolationmode none
attr moduledisplaypath OspfRouting.Giang.lo[0]
attr recordingmode count
attr source packetDropReasonIsNoCarrier(packetDropped)
attr title "packet drops: no carrier, count"
scalar OspfRouting.H1.lo[0] packetDropNoCarrier:sum(packetBytes) 0
attr interpolationmode none
attr moduledisplaypath OspfRouting.Giang.lo[0]
attr recordingmode sum(packetBytes)
attr source packetDropReasonIsNoCarrier(packetDropped)
attr title "packet drops: no carrier, sum(packetBytes)"
par OspfRouting.H1.eth[0].mac.phys$o.channel typename "\"ned.IdealChannel\""
par OspfRouting.H1.eth[0].phys$i.channel typename "\"ned.IdealChannel\""
par OspfRouting.H1.eth[0].upperLayerIn.channel typename "\"ned.IdealChannel\""
par OspfRouting.H1.eth[0].mac.upperLayerOut.channel typename "\"ned.IdealChannel\""
par OspfRouting.H1.eth[0].queue typename "\"inet.linklayer.ethernet.common.EthernetQueue\""
par OspfRouting.H1.eth[0].queue displayStringTextFormat "\"contains %p pk (%l) pushed %u\\npulled %o removed %r dropped %d\""
par OspfRouting.H1.eth[0].queue packetCapacity 1000
par OspfRouting.H1.eth[0].queue dataCapacity -1b
attr unit b
par OspfRouting.H1.eth[0].queue dropperClass "\"inet::queueing::PacketAtCollectionEndDropper\""
par OspfRouting.H1.eth[0].queue comparatorClass "\"inet::EthernetFrameTypeComparator\""
par OspfRouting.H1.eth[0].queue bufferModule "\"\""
scalar OspfRouting.H1.eth[0].queue queueLength:last nan
attr autoWarmupFilter false
attr interpolationmode sample-hold
attr moduledisplaypath OspfRouting.Giang.eth[0].queue
attr recordingmode last
attr source "warmup(atomic(constant0(packetPushEnded) + count(packetPushStarted) - count(packetPulled) - count(packetRemoved) - count(packetDropped)))"
attr title "queue length, last"
attr unit pk
scalar OspfRouting.H1.eth[0].queue queueLength:max nan
attr autoWarmupFilter false
attr interpolationmode sample-hold
attr moduledisplaypath OspfRouting.Giang.eth[0].queue
attr recordingmode max
attr source "warmup(atomic(constant0(packetPushEnded) + count(packetPushStarted) - count(packetPulled) - count(packetRemoved) - count(packetDropped)))"
attr title "queue length, max"
attr unit pk
scalar OspfRouting.H1.eth[0].queue queueLength:timeavg nan
attr autoWarmupFilter false
attr interpolationmode sample-hold
attr moduledisplaypath OspfRouting.Giang.eth[0].queue
attr recordingmode timeavg
attr source "warmup(atomic(constant0(packetPushEnded) + count(packetPushStarted) - count(packetPulled) - count(packetRemoved) - count(packetDropped)))"
attr title "queue length, timeavg"
attr unit pk
scalar OspfRouting.H1.eth[0].queue queueBitLength:last nan
attr autoWarmupFilter false
attr interpolationmode sample-hold
attr moduledisplaypath OspfRouting.Giang.eth[0].queue
attr recordingmode last
attr source "warmup(atomic(constant0(packetPushEnded) + sum(packetLength(packetPushStarted)) - sum(packetLength(packetPulled)) - sum(packetLength(packetRemoved)) - sum(packetLength(packetDropped))))"
attr title "queue bit length, last"
attr unit b
scalar OspfRouting.H1.eth[0].queue queueBitLength:max nan
attr autoWarmupFilter false
attr interpolationmode sample-hold
attr moduledisplaypath OspfRouting.Giang.eth[0].queue
attr recordingmode max
attr source "warmup(atomic(constant0(packetPushEnded) + sum(packetLength(packetPushStarted)) - sum(packetLength(packetPulled)) - sum(packetLength(packetRemoved)) - sum(packetLength(packetDropped))))"
attr title "queue bit length, max"
attr unit b
scalar OspfRouting.H1.eth[0].queue queueBitLength:timeavg nan
attr autoWarmupFilter false
attr interpolationmode sample-hold
attr moduledisplaypath OspfRouting.Giang.eth[0].queue
attr recordingmode timeavg
attr source "warmup(atomic(constant0(packetPushEnded) + sum(packetLength(packetPushStarted)) - sum(packetLength(packetPulled)) - sum(packetLength(packetRemoved)) - sum(packetLength(packetDropped))))"
attr title "queue bit length, timeavg"
attr unit b
statistic OspfRouting.H1.eth[0].queue queueingTime:histogram
field count 0
field mean nan
field stddev nan
field min nan
field max nan
field sum 0
field sqrsum 0
attr interpolationmode none
attr moduledisplaypath OspfRouting.Giang.eth[0].queue
attr recordingmode histogram
attr source queueingTime(packetPulled)
attr title "queueing times"
attr unit s
bin	-inf	0
bin	0	0
bin	1	0
scalar OspfRouting.H1.eth[0].queue outgoingPackets:count 0
attr moduledisplaypath OspfRouting.Giang.eth[0].queue
attr recordingmode count
attr source packetPulled
attr title "outgoing packets, count"
attr unit pk
scalar OspfRouting.H1.eth[0].queue outgoingPacketLengths:sum 0
attr interpolationmode none
attr moduledisplaypath OspfRouting.Giang.eth[0].queue
attr recordingmode sum
attr source packetLength(packetPulled)
attr title "outgoing packet lengths, sum"
attr unit b
statistic OspfRouting.H1.eth[0].queue outgoingPacketLengths:histogram
field count 0
field mean nan
field stddev nan
field min nan
field max nan
field sum 0
field sqrsum 0
attr interpolationmode none
attr moduledisplaypath OspfRouting.Giang.eth[0].queue
attr recordingmode histogram
attr source packetLength(packetPulled)
attr title "outgoing packet lengths"
attr unit b
bin	-inf	0
bin	0	0
bin	1	0
statistic OspfRouting.H1.eth[0].queue flowQueueingTime:histogram
field count 0
field mean nan
field stddev nan
field min nan
field max nan
field sum 0
field sqrsum 0
attr interpolationmode none
attr moduledisplaypath OspfRouting.Giang.eth[0].queue
attr recordingmode histogram
attr source queueingTime(demuxFlow(packetPulled))
attr title "flow queueing times"
attr unit s
bin	-inf	0
bin	0	0
bin	1	0
scalar OspfRouting.H1.eth[0].queue incomingPackets:count 0
attr moduledisplaypath OspfRouting.Giang.eth[0].queue
attr recordingmode count
attr source packetPushStarted
attr title "incoming packets, count"
attr unit pk
scalar OspfRouting.H1.eth[0].queue incomingPacketLengths:sum 0
attr interpolationmode none
attr moduledisplaypath OspfRouting.Giang.eth[0].queue
attr recordingmode sum
attr source packetLength(packetPushStarted)
attr title "incoming packet lengths, sum"
attr unit b
statistic OspfRouting.H1.eth[0].queue incomingPacketLengths:histogram
field count 0
field mean nan
field stddev nan
field min nan
field max nan
field sum 0
field sqrsum 0
attr interpolationmode none
attr moduledisplaypath OspfRouting.Giang.eth[0].queue
attr recordingmode histogram
attr source packetLength(packetPushStarted)
attr title "incoming packet lengths"
attr unit b
bin	-inf	0
bin	0	0
bin	1	0
scalar OspfRouting.H1.eth[0].queue droppedPacketsQueueOverflow:count 0
attr interpolationmode none
attr moduledisplaypath OspfRouting.Giang.eth[0].queue
attr recordingmode count
attr source packetDropReasonIsQueueOverflow(packetDropped)
attr title "dropped packets: queue overflow, count"
attr unit pk
scalar OspfRouting.H1.eth[0].queue droppedPacketLengthsQueueOverflow:sum 0
attr interpolationmode none
attr moduledisplaypath OspfRouting.Giang.eth[0].queue
attr recordingmode sum
attr source packetLength(packetDropReasonIsQueueOverflow(packetDropped))
attr title "dropped packet lengths: queue overflow, sum"
attr unit b
par OspfRouting.H1.eth[0].mac typename "\"inet.linklayer.ethernet.basic.EthernetMac\""
par OspfRouting.H1.eth[0].mac interfaceTableModule "\"OspfRouting.H1.interfaceTable\""
par OspfRouting.H1.eth[0].mac displayStringTextFormat "\"rate: %b\\nsent: %s, rcvd: %r\\nqueue: %q, drop: %d\""
par OspfRouting.H1.eth[0].mac sendRawBytes false
par OspfRouting.H1.eth[0].mac promiscuous false
par OspfRouting.H1.eth[0].mac duplexMode true
par OspfRouting.H1.eth[0].mac mtu 1500B
attr unit B
par OspfRouting.H1.eth[0].mac fcsMode "\"declared\""
attr enum declared,computed
par OspfRouting.H1.eth[0].mac stopOperationExtraTime -1s
attr unit s
par OspfRouting.H1.eth[0].mac stopOperationTimeout 2s
attr unit s
scalar OspfRouting.H1.eth[0].mac "simulated time" 5.096933430061
scalar OspfRouting.H1.eth[0].mac full-duplex 1
scalar OspfRouting.H1.eth[0].mac "frames/sec sent" 0
scalar OspfRouting.H1.eth[0].mac "frames/sec rcvd" 0.19619640195851
scalar OspfRouting.H1.eth[0].mac "bits/sec sent" 0
scalar OspfRouting.H1.eth[0].mac "bits/sec rcvd" 128.70483968478
scalar OspfRouting.H1.eth[0].mac "rx channel idle (%)" 99.999858738591
scalar OspfRouting.H1.eth[0].mac "rx channel utilization (%)" 0.00014126140941013
scalar OspfRouting.H1.eth[0].mac txPk:count 0
attr interpolationmode none
attr moduledisplaypath OspfRouting.Giang.eth[0].mac
attr recordingmode count
attr source packetSentToLower
attr title "packets transmitted, count"
scalar OspfRouting.H1.eth[0].mac txPk:sum(packetBytes) 0
attr interpolationmode none
attr moduledisplaypath OspfRouting.Giang.eth[0].mac
attr recordingmode sum(packetBytes)
attr source packetSentToLower
attr title "packets transmitted, sum(packetBytes)"
scalar OspfRouting.H1.eth[0].mac packetReceivedFromUpper:count 0
attr interpolationmode none
attr moduledisplaypath OspfRouting.Giang.eth[0].mac
attr recordingmode count
attr source packetReceivedFromUpper
attr title "packet bytes from higher layer, count"
scalar OspfRouting.H1.eth[0].mac packetReceivedFromUpper:sum(packetBytes) 0
attr interpolationmode none
attr moduledisplaypath OspfRouting.Giang.eth[0].mac
attr recordingmode sum(packetBytes)
attr source packetReceivedFromUpper
attr title "packet bytes from higher layer, sum(packetBytes)"
scalar OspfRouting.H1.eth[0].mac passedUpPk:count 1
attr interpolationmode none
attr moduledisplaypath OspfRouting.Giang.eth[0].mac
attr recordingmode count
attr source packetSentToUpper
attr title "packets passed to higher layer, count"
scalar OspfRouting.H1.eth[0].mac passedUpPk:sum(packetBytes) 82
attr interpolationmode none
attr moduledisplaypath OspfRouting.Giang.eth[0].mac
attr recordingmode sum(packetBytes)
attr source packetSentToUpper
attr title "packets passed to higher layer, sum(packetBytes)"
scalar OspfRouting.H1.eth[0].mac packetDropIncorrectlyReceived:count 0
attr interpolationmode none
attr moduledisplaypath OspfRouting.Giang.eth[0].mac
attr recordingmode count
attr source packetDropReasonIsIncorrectlyReceived(packetDropped)
attr title "packet drop: incorrectly received, count"
scalar OspfRouting.H1.eth[0].mac packetDropIncorrectlyReceived:sum(packetBytes) 0
attr interpolationmode none
attr moduledisplaypath OspfRouting.Giang.eth[0].mac
attr recordingmode sum(packetBytes)
attr source packetDropReasonIsIncorrectlyReceived(packetDropped)
attr title "packet drop: incorrectly received, sum(packetBytes)"
scalar OspfRouting.H1.eth[0].mac packetDropInterfaceDown:count 0
attr interpolationmode none
attr moduledisplaypath OspfRouting.Giang.eth[0].mac
attr recordingmode count
attr source packetDropReasonIsInterfaceDown(packetDropped)
attr title "packet drop: interface down, count"
scalar OspfRouting.H1.eth[0].mac packetDropInterfaceDown:sum(packetBytes) 0
attr interpolationmode none
attr moduledisplaypath OspfRouting.Giang.eth[0].mac
attr recordingmode sum(packetBytes)
attr source packetDropReasonIsInterfaceDown(packetDropped)
attr title "packet drop: interface down, sum(packetBytes)"
scalar OspfRouting.H1.eth[0].mac packetDropNotAddressedToUs:count 0
attr interpolationmode none
attr moduledisplaypath OspfRouting.Giang.eth[0].mac
attr recordingmode count
attr source packetDropReasonIsNotAddressedToUs(packetDropped)
attr title "packet drop: not addressed to us, count"
scalar OspfRouting.H1.eth[0].mac packetDropNotAddressedToUs:sum(packetBytes) 0
attr interpolationmode none
attr moduledisplaypath OspfRouting.Giang.eth[0].mac
attr recordingmode sum(packetBytes)
attr source packetDropReasonIsNotAddressedToUs(packetDropped)
attr title "packet drop: not addressed to us, sum(packetBytes)"
scalar OspfRouting.H1.eth[0].mac rxPausePkUnits:count 0
attr interpolationmode none
attr moduledisplaypath OspfRouting.Giang.eth[0].mac
attr recordingmode count
attr title "pause units received, count"
scalar OspfRouting.H1.eth[0].mac rxPausePkUnits:sum 0
attr interpolationmode none
attr moduledisplaypath OspfRouting.Giang.eth[0].mac
attr recordingmode sum
attr title "pause units received, sum"
scalar OspfRouting.H1.eth[0].mac txPausePkUnits:count 0
attr interpolationmode none
attr moduledisplaypath OspfRouting.Giang.eth[0].mac
attr recordingmode count
attr title "pause units sent, count"
scalar OspfRouting.H1.eth[0].mac txPausePkUnits:sum 0
attr interpolationmode none
attr moduledisplaypath OspfRouting.Giang.eth[0].mac
attr recordingmode sum
attr title "pause units sent, sum"
scalar OspfRouting.H1.eth[0].mac rxPkOk:count 1
attr interpolationmode none
attr moduledisplaypath OspfRouting.Giang.eth[0].mac
attr recordingmode count
attr source rxPkOk
attr title "packets received OK, count"
scalar OspfRouting.H1.eth[0].mac rxPkOk:sum(packetBytes) 82
attr interpolationmode none
attr moduledisplaypath OspfRouting.Giang.eth[0].mac
attr recordingmode sum(packetBytes)
attr source rxPkOk
attr title "packets received OK, sum(packetBytes)"
par OspfRouting.H1.eth[0] typename "\"inet.linklayer.ethernet.EthernetInterface\""
par OspfRouting.H1.eth[0] displayStringTextFormat "\"%a (%i)\\n%m\""
par OspfRouting.H1.eth[0] recordPcap false
par OspfRouting.H1.eth[0] numPcapRecorders 0
par OspfRouting.H1.eth[0] interfaceTableModule "\"OspfRouting.H1.interfaceTable\""
par OspfRouting.H1.eth[0] protocol "\"ethernetmac\""
par OspfRouting.H1.eth[0] address "\"0A-AA-00-00-00-01\""
attr mutable ""
par OspfRouting.H1.eth[0] duplexMode true
par OspfRouting.H1.eth[0] csmacdSupport false
par OspfRouting.H1.eth[0] bitrate 0bps
attr unit bps
par OspfRouting.H1.eth[0] fcsMode "\"declared\""
attr enum declared,computed
scalar OspfRouting.H1.eth[0] packetDropInterfaceDown:count 0
attr interpolationmode none
attr moduledisplaypath OspfRouting.Giang.eth[0]
attr recordingmode count
attr source packetDropReasonIsInterfaceDown(packetDropped)
attr title "packet drops: interface down, count"
scalar OspfRouting.H1.eth[0] packetDropInterfaceDown:sum(packetBytes) 0
attr interpolationmode none
attr moduledisplaypath OspfRouting.Giang.eth[0]
attr recordingmode sum(packetBytes)
attr source packetDropReasonIsInterfaceDown(packetDropped)
attr title "packet drops: interface down, sum(packetBytes)"
scalar OspfRouting.H1.eth[0] packetDropNoCarrier:count 0
attr interpolationmode none
attr moduledisplaypath OspfRouting.Giang.eth[0]
attr recordingmode count
attr source packetDropReasonIsNoCarrier(packetDropped)
attr title "packet drops: no carrier, count"
scalar OspfRouting.H1.eth[0] packetDropNoCarrier:sum(packetBytes) 0
attr interpolationmode none
attr moduledisplaypath OspfRouting.Giang.eth[0]
attr recordingmode sum(packetBytes)
attr source packetDropReasonIsNoCarrier(packetDropped)
attr title "packet drops: no carrier, sum(packetBytes)"
par OspfRouting.H1.ipv4.transportIn.channel typename "\"ned.IdealChannel\""
par OspfRouting.H1.ipv4.up.out[0].channel typename "\"ned.IdealChannel\""
par OspfRouting.H1.ipv4.lp.out[2].channel typename "\"ned.IdealChannel\""
par OspfRouting.H1.ipv4.ifIn.channel typename "\"ned.IdealChannel\""
par OspfRouting.H1.ipv4.configurator typename "\"inet.networklayer.configurator.ipv4.Ipv4NodeConfigurator\""
par OspfRouting.H1.ipv4.configurator interfaceTableModule "\"OspfRouting.H1.interfaceTable\""
par OspfRouting.H1.ipv4.configurator routingTableModule "\"OspfRouting.H1.ipv4.routingTable\""
par OspfRouting.H1.ipv4.configurator networkConfiguratorModule "\"configurator\""
par OspfRouting.H1.ipv4.configurator configureRoutingTable true
par OspfRouting.H1.ipv4.routingTable typename "\"inet.networklayer.ipv4.Ipv4RoutingTable\""
par OspfRouting.H1.ipv4.routingTable interfaceTableModule "\"OspfRouting.H1.interfaceTable\""
par OspfRouting.H1.ipv4.routingTable routerId "\"auto\""
par OspfRouting.H1.ipv4.routingTable netmaskRoutes "\"*\""
par OspfRouting.H1.ipv4.routingTable forwarding false
par OspfRouting.H1.ipv4.routingTable multicastForwarding false
par OspfRouting.H1.ipv4.routingTable useAdminDist false
par OspfRouting.H1.ipv4.routingTable routingFile "\"\""
par OspfRouting.H1.ipv4.natTable typename "\"inet.networklayer.ipv4.Ipv4NatTable\""
par OspfRouting.H1.ipv4.natTable networkProtocolModule "\"^.ip\""
par OspfRouting.H1.ipv4.natTable config "<config/> at content:1"
par OspfRouting.H1.ipv4.up typename "\"inet.common.MessageDispatcher\""
par OspfRouting.H1.ipv4.up displayStringTextFormat "\"processed %p pk (%l)\""
par OspfRouting.H1.ipv4.up forwardServiceRegistration true
par OspfRouting.H1.ipv4.up forwardProtocolRegistration true
par OspfRouting.H1.ipv4.igmp typename "\"inet.networklayer.ipv4.Igmpv2\""
par OspfRouting.H1.ipv4.igmp interfaceTableModule "\"OspfRouting.H1.interfaceTable\""
par OspfRouting.H1.ipv4.igmp routingTableModule "\"OspfRouting.H1.ipv4.routingTable\""
par OspfRouting.H1.ipv4.igmp crcMode "\"declared\""
attr enum declared,computed
par OspfRouting.H1.ipv4.igmp enabled true
par OspfRouting.H1.ipv4.igmp robustnessVariable 2
par OspfRouting.H1.ipv4.igmp queryInterval 125s
attr unit s
par OspfRouting.H1.ipv4.igmp queryResponseInterval 10s
attr unit s
par OspfRouting.H1.ipv4.igmp groupMembershipInterval 260s
attr unit s
par OspfRouting.H1.ipv4.igmp otherQuerierPresentInterval 255s
attr unit s
par OspfRouting.H1.ipv4.igmp startupQueryInterval 31.25s
attr unit s
par OspfRouting.H1.ipv4.igmp startupQueryCount 2
par OspfRouting.H1.ipv4.igmp lastMemberQueryInterval 1s
attr unit s
par OspfRouting.H1.ipv4.igmp lastMemberQueryCount 2
par OspfRouting.H1.ipv4.igmp unsolicitedReportInterval 10s
attr unit s
par OspfRouting.H1.ipv4.icmp typename "\"inet.networklayer.ipv4.Icmp\""
par OspfRouting.H1.ipv4.icmp interfaceTableModule "\"OspfRouting.H1.interfaceTable\""
par OspfRouting.H1.ipv4.icmp routingTableModule "\"OspfRouting.H1.ipv4.routingTable\""
par OspfRouting.H1.ipv4.icmp crcMode "\"declared\""
attr enum declared,computed
attr mutable ""
par OspfRouting.H1.ipv4.icmp quoteLength 8B
attr mutable ""
attr unit B
par OspfRouting.H1.ipv4.mp typename "\"inet.common.MessageDispatcher\""
par OspfRouting.H1.ipv4.mp displayStringTextFormat "\"processed %p pk (%l)\""
par OspfRouting.H1.ipv4.mp forwardServiceRegistration true
par OspfRouting.H1.ipv4.mp forwardProtocolRegistration true
par OspfRouting.H1.ipv4.ip typename "\"inet.networklayer.ipv4.Ipv4\""
par OspfRouting.H1.ipv4.ip interfaceTableModule "\"OspfRouting.H1.interfaceTable\""
par OspfRouting.H1.ipv4.ip routingTableModule "\"OspfRouting.H1.ipv4.routingTable\""
par OspfRouting.H1.ipv4.ip arpModule "\"OspfRouting.H1.ipv4.arp\""
par OspfRouting.H1.ipv4.ip icmpModule "\"OspfRouting.H1.ipv4.icmp\""
par OspfRouting.H1.ipv4.ip crcMode "\"declared\""
attr enum declared,computed
par OspfRouting.H1.ipv4.ip timeToLive 32
par OspfRouting.H1.ipv4.ip multicastTimeToLive 32
par OspfRouting.H1.ipv4.ip fragmentTimeout 60s
attr unit s
par OspfRouting.H1.ipv4.ip limitedBroadcast false
par OspfRouting.H1.ipv4.ip directBroadcastInterfaces "\"\""
scalar OspfRouting.H1.ipv4.ip packetDropAddressResolutionFailed:count 0
attr interpolationmode none
attr moduledisplaypath OspfRouting.Giang.ipv4.ip
attr recordingmode count
attr source packetDropReasonIsAddressResolutionFailed(packetDropped)
attr title "packet drop: address resolution failed, count"
scalar OspfRouting.H1.ipv4.ip packetDropAddressResolutionFailed:sum(packetBytes) 0
attr interpolationmode none
attr moduledisplaypath OspfRouting.Giang.ipv4.ip
attr recordingmode sum(packetBytes)
attr source packetDropReasonIsAddressResolutionFailed(packetDropped)
attr title "packet drop: address resolution failed, sum(packetBytes)"
scalar OspfRouting.H1.ipv4.ip packetDropHopLimitReached:count 0
attr interpolationmode none
attr moduledisplaypath OspfRouting.Giang.ipv4.ip
attr recordingmode count
attr source packetDropReasonIsHopLimitReached(packetDropped)
attr title "packet drop: hop limit reached, count"
scalar OspfRouting.H1.ipv4.ip packetDropHopLimitReached:sum(packetBytes) 0
attr interpolationmode none
attr moduledisplaypath OspfRouting.Giang.ipv4.ip
attr recordingmode sum(packetBytes)
attr source packetDropReasonIsHopLimitReached(packetDropped)
attr title "packet drop: hop limit reached, sum(packetBytes)"
scalar OspfRouting.H1.ipv4.ip packetDropForwardingDisabled:count 0
attr interpolationmode none
attr moduledisplaypath OspfRouting.Giang.ipv4.ip
attr recordingmode count
attr source packetDropReasonIsForwardingDisabled(packetDropped)
attr title "packet drop: forwarding disabled, count"
scalar OspfRouting.H1.ipv4.ip packetDropForwardingDisabled:sum(packetBytes) 0
attr interpolationmode none
attr moduledisplaypath OspfRouting.Giang.ipv4.ip
attr recordingmode sum(packetBytes)
attr source packetDropReasonIsForwardingDisabled(packetDropped)
attr title "packet drop: forwarding disabled, sum(packetBytes)"
scalar OspfRouting.H1.ipv4.ip packetDropNoInterfaceFound:count 0
attr interpolationmode none
attr moduledisplaypath OspfRouting.Giang.ipv4.ip
attr recordingmode count
attr source packetDropReasonIsNoInterfaceFound(packetDropped)
attr title "packet drop: no interface found, count"
scalar OspfRouting.H1.ipv4.ip packetDropNoInterfaceFound:sum(packetBytes) 0
attr interpolationmode none
attr moduledisplaypath OspfRouting.Giang.ipv4.ip
attr recordingmode sum(packetBytes)
attr source packetDropReasonIsNoInterfaceFound(packetDropped)
attr title "packet drop: no interface found, sum(packetBytes)"
scalar OspfRouting.H1.ipv4.ip packetDropNoRouteFound:count 0
attr interpolationmode none
attr moduledisplaypath OspfRouting.Giang.ipv4.ip
attr recordingmode count
attr source packetDropReasonIsNoRouteFound(packetDropped)
attr title "packet drop: no route found, count"
scalar OspfRouting.H1.ipv4.ip packetDropNoRouteFound:sum(packetBytes) 0
attr interpolationmode none
attr moduledisplaypath OspfRouting.Giang.ipv4.ip
attr recordingmode sum(packetBytes)
attr source packetDropReasonIsNoRouteFound(packetDropped)
attr title "packet drop: no route found, sum(packetBytes)"
scalar OspfRouting.H1.ipv4.ip packetDropUndefined:count 0
attr interpolationmode none
attr moduledisplaypath OspfRouting.Giang.ipv4.ip
attr recordingmode count
attr source packetDropReasonIsUndefined(packetDropped)
attr title "packet drop: undefined, count"
scalar OspfRouting.H1.ipv4.ip packetDropUndefined:sum(packetBytes) 0
attr interpolationmode none
attr moduledisplaypath OspfRouting.Giang.ipv4.ip
attr recordingmode sum(packetBytes)
attr source packetDropReasonIsUndefined(packetDropped)
attr title "packet drop: undefined, sum(packetBytes)"
par OspfRouting.H1.ipv4.arp typename "\"inet.networklayer.arp.ipv4.Arp\""
par OspfRouting.H1.ipv4.arp interfaceTableModule "\"OspfRouting.H1.interfaceTable\""
par OspfRouting.H1.ipv4.arp routingTableModule "\"OspfRouting.H1.ipv4.routingTable\""
par OspfRouting.H1.ipv4.arp retryTimeout 1s
attr unit s
par OspfRouting.H1.ipv4.arp retryCount 3
par OspfRouting.H1.ipv4.arp cacheTimeout 1s
attr unit s
par OspfRouting.H1.ipv4.arp proxyArpInterfaces "\"\""
scalar OspfRouting.H1.ipv4.arp arpReplySent:count 0
attr moduledisplaypath OspfRouting.Giang.ipv4.arp
attr recordingmode count
attr source arpReplySent
attr title "ARP replies sent, count"
scalar OspfRouting.H1.ipv4.arp arpReplySent:sum(packetBytes) 0
attr moduledisplaypath OspfRouting.Giang.ipv4.arp
attr recordingmode sum(packetBytes)
attr source arpReplySent
attr title "ARP replies sent, sum(packetBytes)"
scalar OspfRouting.H1.ipv4.arp arpRequestSent:count 0
attr moduledisplaypath OspfRouting.Giang.ipv4.arp
attr recordingmode count
attr source arpRequestSent
attr title "ARP request sent, count"
scalar OspfRouting.H1.ipv4.arp arpRequestSent:sum(packetBytes) 0
attr moduledisplaypath OspfRouting.Giang.ipv4.arp
attr recordingmode sum(packetBytes)
attr source arpRequestSent
attr title "ARP request sent, sum(packetBytes)"
scalar OspfRouting.H1.ipv4.arp arpResolutionFailed:count 0
attr moduledisplaypath OspfRouting.Giang.ipv4.arp
attr recordingmode count
attr title "ARP failed resolutions, count"
scalar OspfRouting.H1.ipv4.arp arpResolutionCompleted:count 0
attr moduledisplaypath OspfRouting.Giang.ipv4.arp
attr recordingmode count
attr title "ARP completed resolutions, count"
scalar OspfRouting.H1.ipv4.arp arpResolutionInitiated:count 0
attr moduledisplaypath OspfRouting.Giang.ipv4.arp
attr recordingmode count
attr title "ARP initiated resolutions, count"
par OspfRouting.H1.ipv4.lp typename "\"inet.common.MessageDispatcher\""
par OspfRouting.H1.ipv4.lp displayStringTextFormat "\"processed %p pk (%l)\""
par OspfRouting.H1.ipv4.lp forwardServiceRegistration true
par OspfRouting.H1.ipv4.lp forwardProtocolRegistration true
par OspfRouting.H1.ipv4 typename "\"inet.networklayer.ipv4.Ipv4NetworkLayer\""
par OspfRouting.H1.ipv4 forwarding false
par OspfRouting.H1.ipv4 multicastForwarding false
par OspfRouting.H1.ipv4 interfaceTableModule "\"OspfRouting.H1.interfaceTable\""
par OspfRouting.H1.ipv4 displayStringTextFormat "\"%i\""
par OspfRouting.H1.nl typename "\"inet.common.MessageDispatcher\""
par OspfRouting.H1.nl displayStringTextFormat "\"processed %p pk (%l)\""
par OspfRouting.H1.nl forwardServiceRegistration true
par OspfRouting.H1.nl forwardProtocolRegistration true
par OspfRouting.H1.udp typename "\"inet.transportlayer.udp.Udp\""
par OspfRouting.H1.udp interfaceTableModule "\"OspfRouting.H1.interfaceTable\""
par OspfRouting.H1.udp icmpModule "\"^.ipv4.icmp\""
par OspfRouting.H1.udp icmpv6Module "\"^.ipv6.icmpv6\""
par OspfRouting.H1.udp crcMode "\"declared\""
attr enum disabled,declared,computed
par OspfRouting.H1.udp defaultMulticastLoop true
scalar OspfRouting.H1.udp packetReceived:count 0
attr interpolationmode none
attr moduledisplaypath OspfRouting.Giang.udp
attr recordingmode count
attr source packetReceived
attr title "packets received, count"
scalar OspfRouting.H1.udp packetReceived:sum(packetBytes) 0
attr interpolationmode none
attr moduledisplaypath OspfRouting.Giang.udp
attr recordingmode sum(packetBytes)
attr source packetReceived
attr title "packets received, sum(packetBytes)"
scalar OspfRouting.H1.udp packetSent:count 0
attr interpolationmode none
attr moduledisplaypath OspfRouting.Giang.udp
attr recordingmode count
attr source packetSent
attr title "packets sent, count"
scalar OspfRouting.H1.udp packetSent:sum(packetBytes) 0
attr interpolationmode none
attr moduledisplaypath OspfRouting.Giang.udp
attr recordingmode sum(packetBytes)
attr source packetSent
attr title "packets sent, sum(packetBytes)"
scalar OspfRouting.H1.udp passedUpPk:count 0
attr interpolationmode none
attr moduledisplaypath OspfRouting.Giang.udp
attr recordingmode count
attr source packetSentToUpper
attr title "packets passed up, count"
scalar OspfRouting.H1.udp droppedPkWrongPort:count 0
attr interpolationmode none
attr moduledisplaypath OspfRouting.Giang.udp
attr recordingmode count
attr source packetDropReasonIsNoPortFound(packetDropped)
attr title "packets dropped (wrong port), count"
scalar OspfRouting.H1.udp droppedPkBadChecksum:count 0
attr interpolationmode none
attr moduledisplaypath OspfRouting.Giang.udp
attr recordingmode count
attr source packetDropReasonIsIncorrectlyReceived(packetDropped)
attr title "packets dropped (checksum error), count"
par OspfRouting.H1.tcp typename "\"inet.transportlayer.tcp.Tcp\""
par OspfRouting.H1.tcp crcMode "\"declared\""
attr enum declared,computed
par OspfRouting.H1.tcp advertisedWindow 7504
par OspfRouting.H1.tcp delayedAcksEnabled false
par OspfRouting.H1.tcp nagleEnabled true
par OspfRouting.H1.tcp limitedTransmitEnabled false
par OspfRouting.H1.tcp increasedIWEnabled false
par OspfRouting.H1.tcp sackSupport false
par OspfRouting.H1.tcp windowScalingSupport false
par OspfRouting.H1.tcp windowScalingFactor -1
par OspfRouting.H1.tcp timestampSupport false
par OspfRouting.H1.tcp mss 536
par OspfRouting.H1.tcp msl 120s
attr unit s
par OspfRouting.H1.tcp tcpAlgorithmClass "\"TcpReno\""
attr enum TcpVegas,TcpWestwood,TcpNewReno,TcpReno,TcpTahoe,TcpNoCongestionControl
par OspfRouting.H1.tcp useDataNotification false
par OspfRouting.H1.tcp dupthresh 3
par OspfRouting.H1.tcp initialSsthresh 4294967295
par OspfRouting.H1.tcp stopOperationExtraTime 0s
attr unit s
par OspfRouting.H1.tcp stopOperationTimeout 2s
attr unit s
par OspfRouting.H1.tcp ecnWillingness false
par OspfRouting.H1.tcp dctcpGamma 0.0625
par OspfRouting.H1.tn typename "\"inet.common.MessageDispatcher\""
par OspfRouting.H1.tn displayStringTextFormat "\"processed %p pk (%l)\""
par OspfRouting.H1.tn forwardServiceRegistration true
par OspfRouting.H1.tn forwardProtocolRegistration true
par OspfRouting.H1.at typename "\"inet.common.MessageDispatcher\""
par OspfRouting.H1.at displayStringTextFormat "\"processed %p pk (%l)\""
par OspfRouting.H1.at forwardServiceRegistration true
par OspfRouting.H1.at forwardProtocolRegistration true
par OspfRouting.H1 typename "\"inet.node.inet.StandardHost\""
par OspfRouting.H1 hasStatus false
par OspfRouting.H1 osgModel "\"\""
par OspfRouting.H1 osgModelColor "\"\""
par OspfRouting.H1 canvasImage "\"\""
par OspfRouting.H1 canvasImageColor "\"\""
par OspfRouting.H1 recordPcap false
par OspfRouting.H1 numPcapRecorders 0
par OspfRouting.H1 numLoInterfaces 1
par OspfRouting.H1 numWlanInterfaces 0
par OspfRouting.H1 numEthInterfaces 0
par OspfRouting.H1 numPppInterfaces 0
par OspfRouting.H1 numTunInterfaces 0
par OspfRouting.H1 numVirtInterfaces 0
par OspfRouting.H1 fcsMode "\"declared\""
attr enum declared,computed
par OspfRouting.H1 hasIpv4 true
par OspfRouting.H1 hasIpv6 false
par OspfRouting.H1 hasGn false
par OspfRouting.H1 forwarding false
par OspfRouting.H1 multicastForwarding false
par OspfRouting.H1 hasUdp true
par OspfRouting.H1 hasTcp true
par OspfRouting.H1 hasSctp false
par OspfRouting.H1 numApps 0
par OspfRouting.H2.ethg$i[0].channel typename "\"ned.IdealChannel\""
par OspfRouting.H2.eth[0].phys$o.channel typename "\"ned.IdealChannel\""
par OspfRouting.H2.interfaceTable typename "\"inet.networklayer.common.InterfaceTable\""
par OspfRouting.H2.interfaceTable displayAddresses false
par OspfRouting.H2.cb typename "\"inet.common.MessageDispatcher\""
par OspfRouting.H2.cb displayStringTextFormat "\"processed %p pk (%l)\""
par OspfRouting.H2.cb forwardServiceRegistration true
par OspfRouting.H2.cb forwardProtocolRegistration true
par OspfRouting.H2.bl typename "\"inet.common.MessageDispatcher\""
par OspfRouting.H2.bl displayStringTextFormat "\"processed %p pk (%l)\""
par OspfRouting.H2.bl forwardServiceRegistration true
par OspfRouting.H2.bl forwardProtocolRegistration true
par OspfRouting.H2.ethernet typename "\"inet.linklayer.ethernet.basic.EthernetEncapsulation\""
par OspfRouting.H2.ethernet registerProtocol true
par OspfRouting.H2.ethernet interfaceTableModule "\"OspfRouting.H2.interfaceTable\""
par OspfRouting.H2.ethernet fcsMode "\"declared\""
attr enum declared,computed
par OspfRouting.H2.ethernet stopOperationExtraTime -1s
attr unit s
par OspfRouting.H2.ethernet stopOperationTimeout 2s
attr unit s
scalar OspfRouting.H2.ethernet decapPk:count 1
attr interpolationmode none
attr moduledisplaypath OspfRouting.Trang.ethernet
attr recordingmode count
attr source decapPk
attr title "packets decapsulated, count"
scalar OspfRouting.H2.ethernet decapPk:sum(packetBytes) 64
attr interpolationmode none
attr moduledisplaypath OspfRouting.Trang.ethernet
attr recordingmode sum(packetBytes)
attr source decapPk
attr title "packets decapsulated, sum(packetBytes)"
scalar OspfRouting.H2.ethernet encapPk:count 0
attr interpolationmode none
attr moduledisplaypath OspfRouting.Trang.ethernet
attr recordingmode count
attr source encapPk
attr title "packets encapsulated, count"
scalar OspfRouting.H2.ethernet encapPk:sum(packetBytes) 0
attr interpolationmode none
attr moduledisplaypath OspfRouting.Trang.ethernet
attr recordingmode sum(packetBytes)
attr source encapPk
attr title "packets encapsulated, sum(packetBytes)"
scalar OspfRouting.H2.ethernet pauseSent:count 0
attr moduledisplaypath OspfRouting.Trang.ethernet
attr recordingmode count
attr title "pause sent, count"
scalar OspfRouting.H2.ethernet pauseSent:sum 0
attr moduledisplaypath OspfRouting.Trang.ethernet
attr recordingmode sum
attr title "pause sent, sum"
par OspfRouting.H2.li typename "\"inet.common.MessageDispatcher\""
par OspfRouting.H2.li displayStringTextFormat "\"processed %p pk (%l)\""
par OspfRouting.H2.li forwardServiceRegistration true
par OspfRouting.H2.li forwardProtocolRegistration true
par OspfRouting.H2.lo[0].upperLayerIn.channel typename "\"ned.IdealChannel\""
par OspfRouting.H2.lo[0].lo.upperLayerOut.channel typename "\"ned.IdealChannel\""
par OspfRouting.H2.lo[0].lo typename "\"inet.linklayer.loopback.Loopback\""
par OspfRouting.H2.lo[0].lo interfaceTableModule "\"OspfRouting.H2.interfaceTable\""
par OspfRouting.H2.lo[0].lo mtu 4470B
attr unit B
scalar OspfRouting.H2.lo[0].lo rcvdPkFromHl:count 0
attr interpolationmode none
attr moduledisplaypath OspfRouting.Trang.lo[0].lo
attr recordingmode count
attr source packetReceivedFromUpper
attr title "packets received from higher layer, count"
scalar OspfRouting.H2.lo[0].lo rcvdPkFromHl:sum(packetBytes) 0
attr interpolationmode none
attr moduledisplaypath OspfRouting.Trang.lo[0].lo
attr recordingmode sum(packetBytes)
attr source packetReceivedFromUpper
attr title "packets received from higher layer, sum(packetBytes)"
scalar OspfRouting.H2.lo[0].lo passedUpPk:count 0
attr interpolationmode none
attr moduledisplaypath OspfRouting.Trang.lo[0].lo
attr recordingmode count
attr source packetSentToUpper
attr title "packets passed to higher layer, count"
scalar OspfRouting.H2.lo[0].lo passedUpPk:sum(packetBytes) 0
attr interpolationmode none
attr moduledisplaypath OspfRouting.Trang.lo[0].lo
attr recordingmode sum(packetBytes)
attr source packetSentToUpper
attr title "packets passed to higher layer, sum(packetBytes)"
par OspfRouting.H2.lo[0] typename "\"inet.linklayer.loopback.LoopbackInterface\""
par OspfRouting.H2.lo[0] displayStringTextFormat "\"%a (%i)\\n%m\""
par OspfRouting.H2.lo[0] recordPcap false
par OspfRouting.H2.lo[0] numPcapRecorders 0
par OspfRouting.H2.lo[0] interfaceTableModule "\"OspfRouting.H2.interfaceTable\""
scalar OspfRouting.H2.lo[0] packetDropInterfaceDown:count 0
attr interpolationmode none
attr moduledisplaypath OspfRouting.Trang.lo[0]
attr recordingmode count
attr source packetDropReasonIsInterfaceDown(packetDropped)
attr title "packet drops: interface down, count"
scalar OspfRouting.H2.lo[0] packetDropInterfaceDown:sum(packetBytes) 0
attr interpolationmode none
attr moduledisplaypath OspfRouting.Trang.lo[0]
attr recordingmode sum(packetBytes)
attr source packetDropReasonIsInterfaceDown(packetDropped)
attr title "packet drops: interface down, sum(packetBytes)"
scalar OspfRouting.H2.lo[0] packetDropNoCarrier:count 0
attr interpolationmode none
attr moduledisplaypath OspfRouting.Trang.lo[0]
attr recordingmode count
attr source packetDropReasonIsNoCarrier(packetDropped)
attr title "packet drops: no carrier, count"
scalar OspfRouting.H2.lo[0] packetDropNoCarrier:sum(packetBytes) 0
attr interpolationmode none
attr moduledisplaypath OspfRouting.Trang.lo[0]
attr recordingmode sum(packetBytes)
attr source packetDropReasonIsNoCarrier(packetDropped)
attr title "packet drops: no carrier, sum(packetBytes)"
par OspfRouting.H2.eth[0].mac.phys$o.channel typename "\"ned.IdealChannel\""
par OspfRouting.H2.eth[0].phys$i.channel typename "\"ned.IdealChannel\""
par OspfRouting.H2.eth[0].upperLayerIn.channel typename "\"ned.IdealChannel\""
par OspfRouting.H2.eth[0].mac.upperLayerOut.channel typename "\"ned.IdealChannel\""
par OspfRouting.H2.eth[0].queue typename "\"inet.linklayer.ethernet.common.EthernetQueue\""
par OspfRouting.H2.eth[0].queue displayStringTextFormat "\"contains %p pk (%l) pushed %u\\npulled %o removed %r dropped %d\""
par OspfRouting.H2.eth[0].queue packetCapacity 1000
par OspfRouting.H2.eth[0].queue dataCapacity -1b
attr unit b
par OspfRouting.H2.eth[0].queue dropperClass "\"inet::queueing::PacketAtCollectionEndDropper\""
par OspfRouting.H2.eth[0].queue comparatorClass "\"inet::EthernetFrameTypeComparator\""
par OspfRouting.H2.eth[0].queue bufferModule "\"\""
scalar OspfRouting.H2.eth[0].queue queueLength:last nan
attr autoWarmupFilter false
attr interpolationmode sample-hold
attr moduledisplaypath OspfRouting.Trang.eth[0].queue
attr recordingmode last
attr source "warmup(atomic(constant0(packetPushEnded) + count(packetPushStarted) - count(packetPulled) - count(packetRemoved) - count(packetDropped)))"
attr title "queue length, last"
attr unit pk
scalar OspfRouting.H2.eth[0].queue queueLength:max nan
attr autoWarmupFilter false
attr interpolationmode sample-hold
attr moduledisplaypath OspfRouting.Trang.eth[0].queue
attr recordingmode max
attr source "warmup(atomic(constant0(packetPushEnded) + count(packetPushStarted) - count(packetPulled) - count(packetRemoved) - count(packetDropped)))"
attr title "queue length, max"
attr unit pk
scalar OspfRouting.H2.eth[0].queue queueLength:timeavg nan
attr autoWarmupFilter false
attr interpolationmode sample-hold
attr moduledisplaypath OspfRouting.Trang.eth[0].queue
attr recordingmode timeavg
attr source "warmup(atomic(constant0(packetPushEnded) + count(packetPushStarted) - count(packetPulled) - count(packetRemoved) - count(packetDropped)))"
attr title "queue length, timeavg"
attr unit pk
scalar OspfRouting.H2.eth[0].queue queueBitLength:last nan
attr autoWarmupFilter false
attr interpolationmode sample-hold
attr moduledisplaypath OspfRouting.Trang.eth[0].queue
attr recordingmode last
attr source "warmup(atomic(constant0(packetPushEnded) + sum(packetLength(packetPushStarted)) - sum(packetLength(packetPulled)) - sum(packetLength(packetRemoved)) - sum(packetLength(packetDropped))))"
attr title "queue bit length, last"
attr unit b
scalar OspfRouting.H2.eth[0].queue queueBitLength:max nan
attr autoWarmupFilter false
attr interpolationmode sample-hold
attr moduledisplaypath OspfRouting.Trang.eth[0].queue
attr recordingmode max
attr source "warmup(atomic(constant0(packetPushEnded) + sum(packetLength(packetPushStarted)) - sum(packetLength(packetPulled)) - sum(packetLength(packetRemoved)) - sum(packetLength(packetDropped))))"
attr title "queue bit length, max"
attr unit b
scalar OspfRouting.H2.eth[0].queue queueBitLength:timeavg nan
attr autoWarmupFilter false
attr interpolationmode sample-hold
attr moduledisplaypath OspfRouting.Trang.eth[0].queue
attr recordingmode timeavg
attr source "warmup(atomic(constant0(packetPushEnded) + sum(packetLength(packetPushStarted)) - sum(packetLength(packetPulled)) - sum(packetLength(packetRemoved)) - sum(packetLength(packetDropped))))"
attr title "queue bit length, timeavg"
attr unit b
statistic OspfRouting.H2.eth[0].queue queueingTime:histogram
field count 0
field mean nan
field stddev nan
field min nan
field max nan
field sum 0
field sqrsum 0
attr interpolationmode none
attr moduledisplaypath OspfRouting.Trang.eth[0].queue
attr recordingmode histogram
attr source queueingTime(packetPulled)
attr title "queueing times"
attr unit s
bin	-inf	0
bin	0	0
bin	1	0
scalar OspfRouting.H2.eth[0].queue outgoingPackets:count 0
attr moduledisplaypath OspfRouting.Trang.eth[0].queue
attr recordingmode count
attr source packetPulled
attr title "outgoing packets, count"
attr unit pk
scalar OspfRouting.H2.eth[0].queue outgoingPacketLengths:sum 0
attr interpolationmode none
attr moduledisplaypath OspfRouting.Trang.eth[0].queue
attr recordingmode sum
attr source packetLength(packetPulled)
attr title "outgoing packet lengths, sum"
attr unit b
statistic OspfRouting.H2.eth[0].queue outgoingPacketLengths:histogram
field count 0
field mean nan
field stddev nan
field min nan
field max nan
field sum 0
field sqrsum 0
attr interpolationmode none
attr moduledisplaypath OspfRouting.Trang.eth[0].queue
attr recordingmode histogram
attr source packetLength(packetPulled)
attr title "outgoing packet lengths"
attr unit b
bin	-inf	0
bin	0	0
bin	1	0
statistic OspfRouting.H2.eth[0].queue flowQueueingTime:histogram
field count 0
field mean nan
field stddev nan
field min nan
field max nan
field sum 0
field sqrsum 0
attr interpolationmode none
attr moduledisplaypath OspfRouting.Trang.eth[0].queue
attr recordingmode histogram
attr source queueingTime(demuxFlow(packetPulled))
attr title "flow queueing times"
attr unit s
bin	-inf	0
bin	0	0
bin	1	0
scalar OspfRouting.H2.eth[0].queue incomingPackets:count 0
attr moduledisplaypath OspfRouting.Trang.eth[0].queue
attr recordingmode count
attr source packetPushStarted
attr title "incoming packets, count"
attr unit pk
scalar OspfRouting.H2.eth[0].queue incomingPacketLengths:sum 0
attr interpolationmode none
attr moduledisplaypath OspfRouting.Trang.eth[0].queue
attr recordingmode sum
attr source packetLength(packetPushStarted)
attr title "incoming packet lengths, sum"
attr unit b
statistic OspfRouting.H2.eth[0].queue incomingPacketLengths:histogram
field count 0
field mean nan
field stddev nan
field min nan
field max nan
field sum 0
field sqrsum 0
attr interpolationmode none
attr moduledisplaypath OspfRouting.Trang.eth[0].queue
attr recordingmode histogram
attr source packetLength(packetPushStarted)
attr title "incoming packet lengths"
attr unit b
bin	-inf	0
bin	0	0
bin	1	0
scalar OspfRouting.H2.eth[0].queue droppedPacketsQueueOverflow:count 0
attr interpolationmode none
attr moduledisplaypath OspfRouting.Trang.eth[0].queue
attr recordingmode count
attr source packetDropReasonIsQueueOverflow(packetDropped)
attr title "dropped packets: queue overflow, count"
attr unit pk
scalar OspfRouting.H2.eth[0].queue droppedPacketLengthsQueueOverflow:sum 0
attr interpolationmode none
attr moduledisplaypath OspfRouting.Trang.eth[0].queue
attr recordingmode sum
attr source packetLength(packetDropReasonIsQueueOverflow(packetDropped))
attr title "dropped packet lengths: queue overflow, sum"
attr unit b
par OspfRouting.H2.eth[0].mac typename "\"inet.linklayer.ethernet.basic.EthernetMac\""
par OspfRouting.H2.eth[0].mac interfaceTableModule "\"OspfRouting.H2.interfaceTable\""
par OspfRouting.H2.eth[0].mac displayStringTextFormat "\"rate: %b\\nsent: %s, rcvd: %r\\nqueue: %q, drop: %d\""
par OspfRouting.H2.eth[0].mac sendRawBytes false
par OspfRouting.H2.eth[0].mac promiscuous false
par OspfRouting.H2.eth[0].mac duplexMode true
par OspfRouting.H2.eth[0].mac mtu 1500B
attr unit B
par OspfRouting.H2.eth[0].mac fcsMode "\"declared\""
attr enum declared,computed
par OspfRouting.H2.eth[0].mac stopOperationExtraTime -1s
attr unit s
par OspfRouting.H2.eth[0].mac stopOperationTimeout 2s
attr unit s
scalar OspfRouting.H2.eth[0].mac "simulated time" 5.096933430061
scalar OspfRouting.H2.eth[0].mac full-duplex 1
scalar OspfRouting.H2.eth[0].mac "frames/sec sent" 0
scalar OspfRouting.H2.eth[0].mac "frames/sec rcvd" 0.19619640195851
scalar OspfRouting.H2.eth[0].mac "bits/sec sent" 0
scalar OspfRouting.H2.eth[0].mac "bits/sec rcvd" 128.70483968478
scalar OspfRouting.H2.eth[0].mac "rx channel idle (%)" 99.999858738591
scalar OspfRouting.H2.eth[0].mac "rx channel utilization (%)" 0.00014126140941013
scalar OspfRouting.H2.eth[0].mac txPk:count 0
attr interpolationmode none
attr moduledisplaypath OspfRouting.Trang.eth[0].mac
attr recordingmode count
attr source packetSentToLower
attr title "packets transmitted, count"
scalar OspfRouting.H2.eth[0].mac txPk:sum(packetBytes) 0
attr interpolationmode none
attr moduledisplaypath OspfRouting.Trang.eth[0].mac
attr recordingmode sum(packetBytes)
attr source packetSentToLower
attr title "packets transmitted, sum(packetBytes)"
scalar OspfRouting.H2.eth[0].mac packetReceivedFromUpper:count 0
attr interpolationmode none
attr moduledisplaypath OspfRouting.Trang.eth[0].mac
attr recordingmode count
attr source packetReceivedFromUpper
attr title "packet bytes from higher layer, count"
scalar OspfRouting.H2.eth[0].mac packetReceivedFromUpper:sum(packetBytes) 0
attr interpolationmode none
attr moduledisplaypath OspfRouting.Trang.eth[0].mac
attr recordingmode sum(packetBytes)
attr source packetReceivedFromUpper
attr title "packet bytes from higher layer, sum(packetBytes)"
scalar OspfRouting.H2.eth[0].mac passedUpPk:count 1
attr interpolationmode none
attr moduledisplaypath OspfRouting.Trang.eth[0].mac
attr recordingmode count
attr source packetSentToUpper
attr title "packets passed to higher layer, count"
scalar OspfRouting.H2.eth[0].mac passedUpPk:sum(packetBytes) 82
attr interpolationmode none
attr moduledisplaypath OspfRouting.Trang.eth[0].mac
attr recordingmode sum(packetBytes)
attr source packetSentToUpper
attr title "packets passed to higher layer, sum(packetBytes)"
scalar OspfRouting.H2.eth[0].mac packetDropIncorrectlyReceived:count 0
attr interpolationmode none
attr moduledisplaypath OspfRouting.Trang.eth[0].mac
attr recordingmode count
attr source packetDropReasonIsIncorrectlyReceived(packetDropped)
attr title "packet drop: incorrectly received, count"
scalar OspfRouting.H2.eth[0].mac packetDropIncorrectlyReceived:sum(packetBytes) 0
attr interpolationmode none
attr moduledisplaypath OspfRouting.Trang.eth[0].mac
attr recordingmode sum(packetBytes)
attr source packetDropReasonIsIncorrectlyReceived(packetDropped)
attr title "packet drop: incorrectly received, sum(packetBytes)"
scalar OspfRouting.H2.eth[0].mac packetDropInterfaceDown:count 0
attr interpolationmode none
attr moduledisplaypath OspfRouting.Trang.eth[0].mac
attr recordingmode count
attr source packetDropReasonIsInterfaceDown(packetDropped)
attr title "packet drop: interface down, count"
scalar OspfRouting.H2.eth[0].mac packetDropInterfaceDown:sum(packetBytes) 0
attr interpolationmode none
attr moduledisplaypath OspfRouting.Trang.eth[0].mac
attr recordingmode sum(packetBytes)
attr source packetDropReasonIsInterfaceDown(packetDropped)
attr title "packet drop: interface down, sum(packetBytes)"
scalar OspfRouting.H2.eth[0].mac packetDropNotAddressedToUs:count 0
attr interpolationmode none
attr moduledisplaypath OspfRouting.Trang.eth[0].mac
attr recordingmode count
attr source packetDropReasonIsNotAddressedToUs(packetDropped)
attr title "packet drop: not addressed to us, count"
scalar OspfRouting.H2.eth[0].mac packetDropNotAddressedToUs:sum(packetBytes) 0
attr interpolationmode none
attr moduledisplaypath OspfRouting.Trang.eth[0].mac
attr recordingmode sum(packetBytes)
attr source packetDropReasonIsNotAddressedToUs(packetDropped)
attr title "packet drop: not addressed to us, sum(packetBytes)"
scalar OspfRouting.H2.eth[0].mac rxPausePkUnits:count 0
attr interpolationmode none
attr moduledisplaypath OspfRouting.Trang.eth[0].mac
attr recordingmode count
attr title "pause units received, count"
scalar OspfRouting.H2.eth[0].mac rxPausePkUnits:sum 0
attr interpolationmode none
attr moduledisplaypath OspfRouting.Trang.eth[0].mac
attr recordingmode sum
attr title "pause units received, sum"
scalar OspfRouting.H2.eth[0].mac txPausePkUnits:count 0
attr interpolationmode none
attr moduledisplaypath OspfRouting.Trang.eth[0].mac
attr recordingmode count
attr title "pause units sent, count"
scalar OspfRouting.H2.eth[0].mac txPausePkUnits:sum 0
attr interpolationmode none
attr moduledisplaypath OspfRouting.Trang.eth[0].mac
attr recordingmode sum
attr title "pause units sent, sum"
scalar OspfRouting.H2.eth[0].mac rxPkOk:count 1
attr interpolationmode none
attr moduledisplaypath OspfRouting.Trang.eth[0].mac
attr recordingmode count
attr source rxPkOk
attr title "packets received OK, count"
scalar OspfRouting.H2.eth[0].mac rxPkOk:sum(packetBytes) 82
attr interpolationmode none
attr moduledisplaypath OspfRouting.Trang.eth[0].mac
attr recordingmode sum(packetBytes)
attr source rxPkOk
attr title "packets received OK, sum(packetBytes)"
par OspfRouting.H2.eth[0] typename "\"inet.linklayer.ethernet.EthernetInterface\""
par OspfRouting.H2.eth[0] displayStringTextFormat "\"%a (%i)\\n%m\""
par OspfRouting.H2.eth[0] recordPcap false
par OspfRouting.H2.eth[0] numPcapRecorders 0
par OspfRouting.H2.eth[0] interfaceTableModule "\"OspfRouting.H2.interfaceTable\""
par OspfRouting.H2.eth[0] protocol "\"ethernetmac\""
par OspfRouting.H2.eth[0] address "\"0A-AA-00-00-00-02\""
attr mutable ""
par OspfRouting.H2.eth[0] duplexMode true
par OspfRouting.H2.eth[0] csmacdSupport false
par OspfRouting.H2.eth[0] bitrate 0bps
attr unit bps
par OspfRouting.H2.eth[0] fcsMode "\"declared\""
attr enum declared,computed
scalar OspfRouting.H2.eth[0] packetDropInterfaceDown:count 0
attr interpolationmode none
attr moduledisplaypath OspfRouting.Trang.eth[0]
attr recordingmode count
attr source packetDropReasonIsInterfaceDown(packetDropped)
attr title "packet drops: interface down, count"
scalar OspfRouting.H2.eth[0] packetDropInterfaceDown:sum(packetBytes) 0
attr interpolationmode none
attr moduledisplaypath OspfRouting.Trang.eth[0]
attr recordingmode sum(packetBytes)
attr source packetDropReasonIsInterfaceDown(packetDropped)
attr title "packet drops: interface down, sum(packetBytes)"
scalar OspfRouting.H2.eth[0] packetDropNoCarrier:count 0
attr interpolationmode none
attr moduledisplaypath OspfRouting.Trang.eth[0]
attr recordingmode count
attr source packetDropReasonIsNoCarrier(packetDropped)
attr title "packet drops: no carrier, count"
scalar OspfRouting.H2.eth[0] packetDropNoCarrier:sum(packetBytes) 0
attr interpolationmode none
attr moduledisplaypath OspfRouting.Trang.eth[0]
attr recordingmode sum(packetBytes)
attr source packetDropReasonIsNoCarrier(packetDropped)
attr title "packet drops: no carrier, sum(packetBytes)"
par OspfRouting.H2.ipv4.transportIn.channel typename "\"ned.IdealChannel\""
par OspfRouting.H2.ipv4.up.out[0].channel typename "\"ned.IdealChannel\""
par OspfRouting.H2.ipv4.lp.out[2].channel typename "\"ned.IdealChannel\""
par OspfRouting.H2.ipv4.ifIn.channel typename "\"ned.IdealChannel\""
par OspfRouting.H2.ipv4.configurator typename "\"inet.networklayer.configurator.ipv4.Ipv4NodeConfigurator\""
par OspfRouting.H2.ipv4.configurator interfaceTableModule "\"OspfRouting.H2.interfaceTable\""
par OspfRouting.H2.ipv4.configurator routingTableModule "\"OspfRouting.H2.ipv4.routingTable\""
par OspfRouting.H2.ipv4.configurator networkConfiguratorModule "\"configurator\""
par OspfRouting.H2.ipv4.configurator configureRoutingTable true
par OspfRouting.H2.ipv4.routingTable typename "\"inet.networklayer.ipv4.Ipv4RoutingTable\""
par OspfRouting.H2.ipv4.routingTable interfaceTableModule "\"OspfRouting.H2.interfaceTable\""
par OspfRouting.H2.ipv4.routingTable routerId "\"auto\""
par OspfRouting.H2.ipv4.routingTable netmaskRoutes "\"*\""
par OspfRouting.H2.ipv4.routingTable forwarding false
par OspfRouting.H2.ipv4.routingTable multicastForwarding false
par OspfRouting.H2.ipv4.routingTable useAdminDist false
par OspfRouting.H2.ipv4.routingTable routingFile "\"\""
par OspfRouting.H2.ipv4.natTable typename "\"inet.networklayer.ipv4.Ipv4NatTable\""
par OspfRouting.H2.ipv4.natTable networkProtocolModule "\"^.ip\""
par OspfRouting.H2.ipv4.natTable config "<config/> at content:1"
par OspfRouting.H2.ipv4.up typename "\"inet.common.MessageDispatcher\""
par OspfRouting.H2.ipv4.up displayStringTextFormat "\"processed %p pk (%l)\""
par OspfRouting.H2.ipv4.up forwardServiceRegistration true
par OspfRouting.H2.ipv4.up forwardProtocolRegistration true
par OspfRouting.H2.ipv4.igmp typename "\"inet.networklayer.ipv4.Igmpv2\""
par OspfRouting.H2.ipv4.igmp interfaceTableModule "\"OspfRouting.H2.interfaceTable\""
par OspfRouting.H2.ipv4.igmp routingTableModule "\"OspfRouting.H2.ipv4.routingTable\""
par OspfRouting.H2.ipv4.igmp crcMode "\"declared\""
attr enum declared,computed
par OspfRouting.H2.ipv4.igmp enabled true
par OspfRouting.H2.ipv4.igmp robustnessVariable 2
par OspfRouting.H2.ipv4.igmp queryInterval 125s
attr unit s
par OspfRouting.H2.ipv4.igmp queryResponseInterval 10s
attr unit s
par OspfRouting.H2.ipv4.igmp groupMembershipInterval 260s
attr unit s
par OspfRouting.H2.ipv4.igmp otherQuerierPresentInterval 255s
attr unit s
par OspfRouting.H2.ipv4.igmp startupQueryInterval 31.25s
attr unit s
par OspfRouting.H2.ipv4.igmp startupQueryCount 2
par OspfRouting.H2.ipv4.igmp lastMemberQueryInterval 1s
attr unit s
par OspfRouting.H2.ipv4.igmp lastMemberQueryCount 2
par OspfRouting.H2.ipv4.igmp unsolicitedReportInterval 10s
attr unit s
par OspfRouting.H2.ipv4.icmp typename "\"inet.networklayer.ipv4.Icmp\""
par OspfRouting.H2.ipv4.icmp interfaceTableModule "\"OspfRouting.H2.interfaceTable\""
par OspfRouting.H2.ipv4.icmp routingTableModule "\"OspfRouting.H2.ipv4.routingTable\""
par OspfRouting.H2.ipv4.icmp crcMode "\"declared\""
attr enum declared,computed
attr mutable ""
par OspfRouting.H2.ipv4.icmp quoteLength 8B
attr mutable ""
attr unit B
par OspfRouting.H2.ipv4.mp typename "\"inet.common.MessageDispatcher\""
par OspfRouting.H2.ipv4.mp displayStringTextFormat "\"processed %p pk (%l)\""
par OspfRouting.H2.ipv4.mp forwardServiceRegistration true
par OspfRouting.H2.ipv4.mp forwardProtocolRegistration true
par OspfRouting.H2.ipv4.ip typename "\"inet.networklayer.ipv4.Ipv4\""
par OspfRouting.H2.ipv4.ip interfaceTableModule "\"OspfRouting.H2.interfaceTable\""
par OspfRouting.H2.ipv4.ip routingTableModule "\"OspfRouting.H2.ipv4.routingTable\""
par OspfRouting.H2.ipv4.ip arpModule "\"OspfRouting.H2.ipv4.arp\""
par OspfRouting.H2.ipv4.ip icmpModule "\"OspfRouting.H2.ipv4.icmp\""
par OspfRouting.H2.ipv4.ip crcMode "\"declared\""
attr enum declared,computed
par OspfRouting.H2.ipv4.ip timeToLive 32
par OspfRouting.H2.ipv4.ip multicastTimeToLive 32
par OspfRouting.H2.ipv4.ip fragmentTimeout 60s
attr unit s
par OspfRouting.H2.ipv4.ip limitedBroadcast false
par OspfRouting.H2.ipv4.ip directBroadcastInterfaces "\"\""
scalar OspfRouting.H2.ipv4.ip packetDropAddressResolutionFailed:count 0
attr interpolationmode none
attr moduledisplaypath OspfRouting.Trang.ipv4.ip
attr recordingmode count
attr source packetDropReasonIsAddressResolutionFailed(packetDropped)
attr title "packet drop: address resolution failed, count"
scalar OspfRouting.H2.ipv4.ip packetDropAddressResolutionFailed:sum(packetBytes) 0
attr interpolationmode none
attr moduledisplaypath OspfRouting.Trang.ipv4.ip
attr recordingmode sum(packetBytes)
attr source packetDropReasonIsAddressResolutionFailed(packetDropped)
attr title "packet drop: address resolution failed, sum(packetBytes)"
scalar OspfRouting.H2.ipv4.ip packetDropHopLimitReached:count 0
attr interpolationmode none
attr moduledisplaypath OspfRouting.Trang.ipv4.ip
attr recordingmode count
attr source packetDropReasonIsHopLimitReached(packetDropped)
attr title "packet drop: hop limit reached, count"
scalar OspfRouting.H2.ipv4.ip packetDropHopLimitReached:sum(packetBytes) 0
attr interpolationmode none
attr moduledisplaypath OspfRouting.Trang.ipv4.ip
attr recordingmode sum(packetBytes)
attr source packetDropReasonIsHopLimitReached(packetDropped)
attr title "packet drop: hop limit reached, sum(packetBytes)"
scalar OspfRouting.H2.ipv4.ip packetDropForwardingDisabled:count 0
attr interpolationmode none
attr moduledisplaypath OspfRouting.Trang.ipv4.ip
attr recordingmode count
attr source packetDropReasonIsForwardingDisabled(packetDropped)
attr title "packet drop: forwarding disabled, count"
scalar OspfRouting.H2.ipv4.ip packetDropForwardingDisabled:sum(packetBytes) 0
attr interpolationmode none
attr moduledisplaypath OspfRouting.Trang.ipv4.ip
attr recordingmode sum(packetBytes)
attr source packetDropReasonIsForwardingDisabled(packetDropped)
attr title "packet drop: forwarding disabled, sum(packetBytes)"
scalar OspfRouting.H2.ipv4.ip packetDropNoInterfaceFound:count 0
attr interpolationmode none
attr moduledisplaypath OspfRouting.Trang.ipv4.ip
attr recordingmode count
attr source packetDropReasonIsNoInterfaceFound(packetDropped)
attr title "packet drop: no interface found, count"
scalar OspfRouting.H2.ipv4.ip packetDropNoInterfaceFound:sum(packetBytes) 0
attr interpolationmode none
attr moduledisplaypath OspfRouting.Trang.ipv4.ip
attr recordingmode sum(packetBytes)
attr source packetDropReasonIsNoInterfaceFound(packetDropped)
attr title "packet drop: no interface found, sum(packetBytes)"
scalar OspfRouting.H2.ipv4.ip packetDropNoRouteFound:count 0
attr interpolationmode none
attr moduledisplaypath OspfRouting.Trang.ipv4.ip
attr recordingmode count
attr source packetDropReasonIsNoRouteFound(packetDropped)
attr title "packet drop: no route found, count"
scalar OspfRouting.H2.ipv4.ip packetDropNoRouteFound:sum(packetBytes) 0
attr interpolationmode none
attr moduledisplaypath OspfRouting.Trang.ipv4.ip
attr recordingmode sum(packetBytes)
attr source packetDropReasonIsNoRouteFound(packetDropped)
attr title "packet drop: no route found, sum(packetBytes)"
scalar OspfRouting.H2.ipv4.ip packetDropUndefined:count 0
attr interpolationmode none
attr moduledisplaypath OspfRouting.Trang.ipv4.ip
attr recordingmode count
attr source packetDropReasonIsUndefined(packetDropped)
attr title "packet drop: undefined, count"
scalar OspfRouting.H2.ipv4.ip packetDropUndefined:sum(packetBytes) 0
attr interpolationmode none
attr moduledisplaypath OspfRouting.Trang.ipv4.ip
attr recordingmode sum(packetBytes)
attr source packetDropReasonIsUndefined(packetDropped)
attr title "packet drop: undefined, sum(packetBytes)"
par OspfRouting.H2.ipv4.arp typename "\"inet.networklayer.arp.ipv4.Arp\""
par OspfRouting.H2.ipv4.arp interfaceTableModule "\"OspfRouting.H2.interfaceTable\""
par OspfRouting.H2.ipv4.arp routingTableModule "\"OspfRouting.H2.ipv4.routingTable\""
par OspfRouting.H2.ipv4.arp retryTimeout 1s
attr unit s
par OspfRouting.H2.ipv4.arp retryCount 3
par OspfRouting.H2.ipv4.arp cacheTimeout 1s
attr unit s
par OspfRouting.H2.ipv4.arp proxyArpInterfaces "\"\""
scalar OspfRouting.H2.ipv4.arp arpReplySent:count 0
attr moduledisplaypath OspfRouting.Trang.ipv4.arp
attr recordingmode count
attr source arpReplySent
attr title "ARP replies sent, count"
scalar OspfRouting.H2.ipv4.arp arpReplySent:sum(packetBytes) 0
attr moduledisplaypath OspfRouting.Trang.ipv4.arp
attr recordingmode sum(packetBytes)
attr source arpReplySent
attr title "ARP replies sent, sum(packetBytes)"
scalar OspfRouting.H2.ipv4.arp arpRequestSent:count 0
attr moduledisplaypath OspfRouting.Trang.ipv4.arp
attr recordingmode count
attr source arpRequestSent
attr title "ARP request sent, count"
scalar OspfRouting.H2.ipv4.arp arpRequestSent:sum(packetBytes) 0
attr moduledisplaypath OspfRouting.Trang.ipv4.arp
attr recordingmode sum(packetBytes)
attr source arpRequestSent
attr title "ARP request sent, sum(packetBytes)"
scalar OspfRouting.H2.ipv4.arp arpResolutionFailed:count 0
attr moduledisplaypath OspfRouting.Trang.ipv4.arp
attr recordingmode count
attr title "ARP failed resolutions, count"
scalar OspfRouting.H2.ipv4.arp arpResolutionCompleted:count 0
attr moduledisplaypath OspfRouting.Trang.ipv4.arp
attr recordingmode count
attr title "ARP completed resolutions, count"
scalar OspfRouting.H2.ipv4.arp arpResolutionInitiated:count 0
attr moduledisplaypath OspfRouting.Trang.ipv4.arp
attr recordingmode count
attr title "ARP initiated resolutions, count"
par OspfRouting.H2.ipv4.lp typename "\"inet.common.MessageDispatcher\""
par OspfRouting.H2.ipv4.lp displayStringTextFormat "\"processed %p pk (%l)\""
par OspfRouting.H2.ipv4.lp forwardServiceRegistration true
par OspfRouting.H2.ipv4.lp forwardProtocolRegistration true
par OspfRouting.H2.ipv4 typename "\"inet.networklayer.ipv4.Ipv4NetworkLayer\""
par OspfRouting.H2.ipv4 forwarding false
par OspfRouting.H2.ipv4 multicastForwarding false
par OspfRouting.H2.ipv4 interfaceTableModule "\"OspfRouting.H2.interfaceTable\""
par OspfRouting.H2.ipv4 displayStringTextFormat "\"%i\""
par OspfRouting.H2.nl typename "\"inet.common.MessageDispatcher\""
par OspfRouting.H2.nl displayStringTextFormat "\"processed %p pk (%l)\""
par OspfRouting.H2.nl forwardServiceRegistration true
par OspfRouting.H2.nl forwardProtocolRegistration true
par OspfRouting.H2.udp typename "\"inet.transportlayer.udp.Udp\""
par OspfRouting.H2.udp interfaceTableModule "\"OspfRouting.H2.interfaceTable\""
par OspfRouting.H2.udp icmpModule "\"^.ipv4.icmp\""
par OspfRouting.H2.udp icmpv6Module "\"^.ipv6.icmpv6\""
par OspfRouting.H2.udp crcMode "\"declared\""
attr enum disabled,declared,computed
par OspfRouting.H2.udp defaultMulticastLoop true
scalar OspfRouting.H2.udp packetReceived:count 0
attr interpolationmode none
attr moduledisplaypath OspfRouting.Trang.udp
attr recordingmode count
attr source packetReceived
attr title "packets received, count"
scalar OspfRouting.H2.udp packetReceived:sum(packetBytes) 0
attr interpolationmode none
attr moduledisplaypath OspfRouting.Trang.udp
attr recordingmode sum(packetBytes)
attr source packetReceived
attr title "packets received, sum(packetBytes)"
scalar OspfRouting.H2.udp packetSent:count 0
attr interpolationmode none
attr moduledisplaypath OspfRouting.Trang.udp
attr recordingmode count
attr source packetSent
attr title "packets sent, count"
scalar OspfRouting.H2.udp packetSent:sum(packetBytes) 0
attr interpolationmode none
attr moduledisplaypath OspfRouting.Trang.udp
attr recordingmode sum(packetBytes)
attr source packetSent
attr title "packets sent, sum(packetBytes)"
scalar OspfRouting.H2.udp passedUpPk:count 0
attr interpolationmode none
attr moduledisplaypath OspfRouting.Trang.udp
attr recordingmode count
attr source packetSentToUpper
attr title "packets passed up, count"
scalar OspfRouting.H2.udp droppedPkWrongPort:count 0
attr interpolationmode none
attr moduledisplaypath OspfRouting.Trang.udp
attr recordingmode count
attr source packetDropReasonIsNoPortFound(packetDropped)
attr title "packets dropped (wrong port), count"
scalar OspfRouting.H2.udp droppedPkBadChecksum:count 0
attr interpolationmode none
attr moduledisplaypath OspfRouting.Trang.udp
attr recordingmode count
attr source packetDropReasonIsIncorrectlyReceived(packetDropped)
attr title "packets dropped (checksum error), count"
par OspfRouting.H2.tcp typename "\"inet.transportlayer.tcp.Tcp\""
par OspfRouting.H2.tcp crcMode "\"declared\""
attr enum declared,computed
par OspfRouting.H2.tcp advertisedWindow 7504
par OspfRouting.H2.tcp delayedAcksEnabled false
par OspfRouting.H2.tcp nagleEnabled true
par OspfRouting.H2.tcp limitedTransmitEnabled false
par OspfRouting.H2.tcp increasedIWEnabled false
par OspfRouting.H2.tcp sackSupport false
par OspfRouting.H2.tcp windowScalingSupport false
par OspfRouting.H2.tcp windowScalingFactor -1
par OspfRouting.H2.tcp timestampSupport false
par OspfRouting.H2.tcp mss 536
par OspfRouting.H2.tcp msl 120s
attr unit s
par OspfRouting.H2.tcp tcpAlgorithmClass "\"TcpReno\""
attr enum TcpVegas,TcpWestwood,TcpNewReno,TcpReno,TcpTahoe,TcpNoCongestionControl
par OspfRouting.H2.tcp useDataNotification false
[...]
attr mutable ""
par OspfRouting.integratedVisualizer.canvasVisualizer.dataLinkVisualizer interfaceFilter "\"*\""
attr mutable ""
par OspfRouting.integratedVisualizer.canvasVisualizer.dataLinkVisualizer packetFilter "(omnetpp::cValueHolder)holder: \"*\""
attr mutable ""
par OspfRouting.integratedVisualizer.canvasVisualizer.dataLinkVisualizer lineColor "\"darkcyan\""
par OspfRouting.integratedVisualizer.canvasVisualizer.dataLinkVisualizer lineStyle "\"solid\""
par OspfRouting.integratedVisualizer.canvasVisualizer.dataLinkVisualizer lineWidth 3
par OspfRouting.integratedVisualizer.canvasVisualizer.dataLinkVisualizer lineShift 16
par OspfRouting.integratedVisualizer.canvasVisualizer.dataLinkVisualizer lineShiftMode "\"normal\""
par OspfRouting.integratedVisualizer.canvasVisualizer.dataLinkVisualizer lineContactSpacing 3
par OspfRouting.integratedVisualizer.canvasVisualizer.dataLinkVisualizer lineContactMode "\"rectangular\""
attr enum circular,rectangular
par OspfRouting.integratedVisualizer.canvasVisualizer.dataLinkVisualizer labelFormat "\"%n\""
par OspfRouting.integratedVisualizer.canvasVisualizer.dataLinkVisualizer labelFont "\"<default>, 8px\""
par OspfRouting.integratedVisualizer.canvasVisualizer.dataLinkVisualizer labelColor "\"darkcyan\""
par OspfRouting.integratedVisualizer.canvasVisualizer.dataLinkVisualizer fadeOutMode "\"realTime\""
attr enum realTime,animationTime,simulationTime
par OspfRouting.integratedVisualizer.canvasVisualizer.dataLinkVisualizer fadeOutTime 1s
attr unit s
par OspfRouting.integratedVisualizer.canvasVisualizer.dataLinkVisualizer fadeOutAnimationSpeed 0
par OspfRouting.integratedVisualizer.canvasVisualizer.dataLinkVisualizer holdAnimationTime 0s
attr unit s
par OspfRouting.integratedVisualizer.canvasVisualizer.dataLinkVisualizer zIndex 2
par OspfRouting.integratedVisualizer.canvasVisualizer.linkBreakVisualizer typename "\"inet.visualizer.canvas.linklayer.LinkBreakCanvasVisualizer\""
par OspfRouting.integratedVisualizer.canvasVisualizer.linkBreakVisualizer visualizationTargetModule "\"^.^.^\""
par OspfRouting.integratedVisualizer.canvasVisualizer.linkBreakVisualizer visualizationSubjectModule "\"^.^.^\""
par OspfRouting.integratedVisualizer.canvasVisualizer.linkBreakVisualizer tags "\"\""
par OspfRouting.integratedVisualizer.canvasVisualizer.linkBreakVisualizer displayLinkBreaks false
par OspfRouting.integratedVisualizer.canvasVisualizer.linkBreakVisualizer nodeFilter "\"*\""
attr mutable ""
par OspfRouting.integratedVisualizer.canvasVisualizer.linkBreakVisualizer interfaceFilter "\"*\""
attr mutable ""
par OspfRouting.integratedVisualizer.canvasVisualizer.linkBreakVisualizer packetFilter "(omnetpp::cValueHolder)holder: \"*\""
attr mutable ""
par OspfRouting.integratedVisualizer.canvasVisualizer.linkBreakVisualizer icon "\"status/stop\""
par OspfRouting.integratedVisualizer.canvasVisualizer.linkBreakVisualizer iconTintAmount 0
par OspfRouting.integratedVisualizer.canvasVisualizer.linkBreakVisualizer iconTintColor "\"\""
par OspfRouting.integratedVisualizer.canvasVisualizer.linkBreakVisualizer fadeOutMode "\"realTime\""
attr enum realTime,animationTime,simulationTime
par OspfRouting.integratedVisualizer.canvasVisualizer.linkBreakVisualizer fadeOutTime 1s
attr unit s
par OspfRouting.integratedVisualizer.canvasVisualizer.linkBreakVisualizer fadeOutAnimationSpeed 0
par OspfRouting.integratedVisualizer.canvasVisualizer.linkBreakVisualizer zIndex 2
par OspfRouting.integratedVisualizer.canvasVisualizer.ieee80211Visualizer typename "\"inet.visualizer.canvas.linklayer.Ieee80211CanvasVisualizer\""
par OspfRouting.integratedVisualizer.canvasVisualizer.ieee80211Visualizer visualizationTargetModule "\"^.^.^\""
par OspfRouting.integratedVisualizer.canvasVisualizer.ieee80211Visualizer visualizationSubjectModule "\"^.^.^\""
par OspfRouting.integratedVisualizer.canvasVisualizer.ieee80211Visualizer tags "\"\""
par OspfRouting.integratedVisualizer.canvasVisualizer.ieee80211Visualizer networkNodeVisualizerModule "\"^.networkNodeVisualizer\""
par OspfRouting.integratedVisualizer.canvasVisualizer.ieee80211Visualizer displayAssociations false
par OspfRouting.integratedVisualizer.canvasVisualizer.ieee80211Visualizer nodeFilter "\"*\""
attr mutable ""
par OspfRouting.integratedVisualizer.canvasVisualizer.ieee80211Visualizer interfaceFilter "\"*\""
attr mutable ""
par OspfRouting.integratedVisualizer.canvasVisualizer.ieee80211Visualizer minPower -85dBm
attr unit dBm
par OspfRouting.integratedVisualizer.canvasVisualizer.ieee80211Visualizer maxPower -50dBm
attr unit dBm
par OspfRouting.integratedVisualizer.canvasVisualizer.ieee80211Visualizer icons "\"misc/signal_power_0 misc/signal_power_1 misc/signal_power_2 misc/signal_power_3\""
par OspfRouting.integratedVisualizer.canvasVisualizer.ieee80211Visualizer iconColor "\"dark\""
attr enum light,dark
par OspfRouting.integratedVisualizer.canvasVisualizer.ieee80211Visualizer labelFont "\"<default>\""
par OspfRouting.integratedVisualizer.canvasVisualizer.ieee80211Visualizer labelColor "\"black\""
par OspfRouting.integratedVisualizer.canvasVisualizer.ieee80211Visualizer placementHint "\"top\""
par OspfRouting.integratedVisualizer.canvasVisualizer.ieee80211Visualizer placementPriority 0
par OspfRouting.integratedVisualizer.canvasVisualizer.ieee80211Visualizer zIndex 2
par OspfRouting.integratedVisualizer.canvasVisualizer.networkRouteVisualizer typename "\"inet.visualizer.canvas.networklayer.NetworkRouteCanvasVisualizer\""
par OspfRouting.integratedVisualizer.canvasVisualizer.networkRouteVisualizer visualizationTargetModule "\"^.^.^\""
par OspfRouting.integratedVisualizer.canvasVisualizer.networkRouteVisualizer visualizationSubjectModule "\"^.^.^\""
par OspfRouting.integratedVisualizer.canvasVisualizer.networkRouteVisualizer tags "\"\""
par OspfRouting.integratedVisualizer.canvasVisualizer.networkRouteVisualizer displayRoutes false
par OspfRouting.integratedVisualizer.canvasVisualizer.networkRouteVisualizer startPathSignal "\"packetReceivedFromUpper\""
par OspfRouting.integratedVisualizer.canvasVisualizer.networkRouteVisualizer extendPathSignal "\"packetReceivedFromLower\""
par OspfRouting.integratedVisualizer.canvasVisualizer.networkRouteVisualizer endPathSignal "\"packetSentToUpper\""
par OspfRouting.integratedVisualizer.canvasVisualizer.networkRouteVisualizer nodeFilter "\"*\""
attr mutable ""
par OspfRouting.integratedVisualizer.canvasVisualizer.networkRouteVisualizer packetFilter "(omnetpp::cValueHolder)holder: \"*\""
attr mutable ""
par OspfRouting.integratedVisualizer.canvasVisualizer.networkRouteVisualizer lineColor "\"dark\""
attr enum light,dark
par OspfRouting.integratedVisualizer.canvasVisualizer.networkRouteVisualizer lineStyle "\"solid\""
par OspfRouting.integratedVisualizer.canvasVisualizer.networkRouteVisualizer lineWidth 3
par OspfRouting.integratedVisualizer.canvasVisualizer.networkRouteVisualizer lineSmooth false
par OspfRouting.integratedVisualizer.canvasVisualizer.networkRouteVisualizer lineShift 16
par OspfRouting.integratedVisualizer.canvasVisualizer.networkRouteVisualizer lineShiftMode "\"normal\""
par OspfRouting.integratedVisualizer.canvasVisualizer.networkRouteVisualizer lineContactSpacing 3
par OspfRouting.integratedVisualizer.canvasVisualizer.networkRouteVisualizer lineContactMode "\"rectangular\""
attr enum circular,rectangular
par OspfRouting.integratedVisualizer.canvasVisualizer.networkRouteVisualizer labelFormat "\"%n\""
par OspfRouting.integratedVisualizer.canvasVisualizer.networkRouteVisualizer labelFont "\"<default>, 8px\""
par OspfRouting.integratedVisualizer.canvasVisualizer.networkRouteVisualizer labelColor "\"\""
par OspfRouting.integratedVisualizer.canvasVisualizer.networkRouteVisualizer fadeOutMode "\"realTime\""
attr enum realTime,animationTime,simulationTime
par OspfRouting.integratedVisualizer.canvasVisualizer.networkRouteVisualizer fadeOutTime 1s
attr unit s
par OspfRouting.integratedVisualizer.canvasVisualizer.networkRouteVisualizer fadeOutAnimationSpeed 0
par OspfRouting.integratedVisualizer.canvasVisualizer.networkRouteVisualizer zIndex 3
par OspfRouting.integratedVisualizer.canvasVisualizer.routingTableVisualizer typename "\"inet.visualizer.canvas.networklayer.RoutingTableCanvasVisualizer\""
par OspfRouting.integratedVisualizer.canvasVisualizer.routingTableVisualizer visualizationTargetModule "\"^.^.^\""
par OspfRouting.integratedVisualizer.canvasVisualizer.routingTableVisualizer visualizationSubjectModule "\"^.^.^\""
par OspfRouting.integratedVisualizer.canvasVisualizer.routingTableVisualizer tags "\"\""
par OspfRouting.integratedVisualizer.canvasVisualizer.routingTableVisualizer displayRoutingTables false
par OspfRouting.integratedVisualizer.canvasVisualizer.routingTableVisualizer displayRoutesIndividually true
par OspfRouting.integratedVisualizer.canvasVisualizer.routingTableVisualizer displayLabels true
par OspfRouting.integratedVisualizer.canvasVisualizer.routingTableVisualizer destinationFilter "\"*\""
attr mutable ""
par OspfRouting.integratedVisualizer.canvasVisualizer.routingTableVisualizer nodeFilter "\"*\""
attr mutable ""
par OspfRouting.integratedVisualizer.canvasVisualizer.routingTableVisualizer lineColor "\"black\""
par OspfRouting.integratedVisualizer.canvasVisualizer.routingTableVisualizer lineStyle "\"solid\""
par OspfRouting.integratedVisualizer.canvasVisualizer.routingTableVisualizer lineWidth 2
par OspfRouting.integratedVisualizer.canvasVisualizer.routingTableVisualizer lineShift 16
par OspfRouting.integratedVisualizer.canvasVisualizer.routingTableVisualizer lineShiftMode "\"normal\""
par OspfRouting.integratedVisualizer.canvasVisualizer.routingTableVisualizer lineContactSpacing 3
par OspfRouting.integratedVisualizer.canvasVisualizer.routingTableVisualizer lineContactMode "\"rectangular\""
attr enum circular,rectangular
par OspfRouting.integratedVisualizer.canvasVisualizer.routingTableVisualizer labelFormat "\"%d/%m -> %g (%n)\""
attr mutable ""
par OspfRouting.integratedVisualizer.canvasVisualizer.routingTableVisualizer labelFont "\"<default>, 8px\""
par OspfRouting.integratedVisualizer.canvasVisualizer.routingTableVisualizer labelColor "\"black\""
par OspfRouting.integratedVisualizer.canvasVisualizer.routingTableVisualizer zIndex 0
par OspfRouting.integratedVisualizer.canvasVisualizer.transportRouteVisualizer typename "\"inet.visualizer.canvas.transportlayer.TransportRouteCanvasVisualizer\""
par OspfRouting.integratedVisualizer.canvasVisualizer.transportRouteVisualizer visualizationTargetModule "\"^.^.^\""
par OspfRouting.integratedVisualizer.canvasVisualizer.transportRouteVisualizer visualizationSubjectModule "\"^.^.^\""
par OspfRouting.integratedVisualizer.canvasVisualizer.transportRouteVisualizer tags "\"\""
par OspfRouting.integratedVisualizer.canvasVisualizer.transportRouteVisualizer displayRoutes false
par OspfRouting.integratedVisualizer.canvasVisualizer.transportRouteVisualizer startPathSignal "\"packetReceivedFromUpper\""
par OspfRouting.integratedVisualizer.canvasVisualizer.transportRouteVisualizer extendPathSignal "\"packetReceivedFromLower\""
par OspfRouting.integratedVisualizer.canvasVisualizer.transportRouteVisualizer endPathSignal "\"packetSentToUpper\""
par OspfRouting.integratedVisualizer.canvasVisualizer.transportRouteVisualizer nodeFilter "\"*\""
attr mutable ""
par OspfRouting.integratedVisualizer.canvasVisualizer.transportRouteVisualizer packetFilter "(omnetpp::cValueHolder)holder: \"*\""
attr mutable ""
par OspfRouting.integratedVisualizer.canvasVisualizer.transportRouteVisualizer lineColor "\"dark\""
attr enum light,dark
par OspfRouting.integratedVisualizer.canvasVisualizer.transportRouteVisualizer lineStyle "\"solid\""
par OspfRouting.integratedVisualizer.canvasVisualizer.transportRouteVisualizer lineWidth 3
par OspfRouting.integratedVisualizer.canvasVisualizer.transportRouteVisualizer lineSmooth false
par OspfRouting.integratedVisualizer.canvasVisualizer.transportRouteVisualizer lineShift 16
par OspfRouting.integratedVisualizer.canvasVisualizer.transportRouteVisualizer lineShiftMode "\"normal\""
par OspfRouting.integratedVisualizer.canvasVisualizer.transportRouteVisualizer lineContactSpacing 3
par OspfRouting.integratedVisualizer.canvasVisualizer.transportRouteVisualizer lineContactMode "\"rectangular\""
attr enum circular,rectangular
par OspfRouting.integratedVisualizer.canvasVisualizer.transportRouteVisualizer labelFormat "\"%n\""
par OspfRouting.integratedVisualizer.canvasVisualizer.transportRouteVisualizer labelFont "\"<default>, 8px\""
par OspfRouting.integratedVisualizer.canvasVisualizer.transportRouteVisualizer labelColor "\"\""
par OspfRouting.integratedVisualizer.canvasVisualizer.transportRouteVisualizer fadeOutMode "\"realTime\""
attr enum realTime,animationTime,simulationTime
par OspfRouting.integratedVisualizer.canvasVisualizer.transportRouteVisualizer fadeOutTime 1s
attr unit s
par OspfRouting.integratedVisualizer.canvasVisualizer.transportRouteVisualizer fadeOutAnimationSpeed 0
par OspfRouting.integratedVisualizer.canvasVisualizer.transportRouteVisualizer zIndex 4
par OspfRouting.integratedVisualizer.canvasVisualizer.transportConnectionVisualizer typename "\"inet.visualizer.canvas.transportlayer.TransportConnectionCanvasVisualizer\""
par OspfRouting.integratedVisualizer.canvasVisualizer.transportConnectionVisualizer visualizationTargetModule "\"^.^.^\""
par OspfRouting.integratedVisualizer.canvasVisualizer.transportConnectionVisualizer visualizationSubjectModule "\"^.^.^\""
par OspfRouting.integratedVisualizer.canvasVisualizer.transportConnectionVisualizer tags "\"\""
par OspfRouting.integratedVisualizer.canvasVisualizer.transportConnectionVisualizer networkNodeVisualizerModule "\"^.networkNodeVisualizer\""
par OspfRouting.integratedVisualizer.canvasVisualizer.transportConnectionVisualizer displayTransportConnections false
par OspfRouting.integratedVisualizer.canvasVisualizer.transportConnectionVisualizer sourceNodeFilter "\"*\""
attr mutable ""
par OspfRouting.integratedVisualizer.canvasVisualizer.transportConnectionVisualizer sourcePortFilter "\"*\""
attr mutable ""
par OspfRouting.integratedVisualizer.canvasVisualizer.transportConnectionVisualizer destinationNodeFilter "\"*\""
attr mutable ""
par OspfRouting.integratedVisualizer.canvasVisualizer.transportConnectionVisualizer destinationPortFilter "\"*\""
attr mutable ""
par OspfRouting.integratedVisualizer.canvasVisualizer.transportConnectionVisualizer icon "\"misc/marker_s\""
par OspfRouting.integratedVisualizer.canvasVisualizer.transportConnectionVisualizer iconColor "\"dark\""
attr enum light,dark
par OspfRouting.integratedVisualizer.canvasVisualizer.transportConnectionVisualizer labelFont "\"<default>\""
par OspfRouting.integratedVisualizer.canvasVisualizer.transportConnectionVisualizer labelColor "\"black\""
par OspfRouting.integratedVisualizer.canvasVisualizer.transportConnectionVisualizer placementHint "\"top\""
par OspfRouting.integratedVisualizer.canvasVisualizer.transportConnectionVisualizer placementPriority 0
par OspfRouting.integratedVisualizer.canvasVisualizer.transportConnectionVisualizer zIndex 4
par OspfRouting.integratedVisualizer.canvasVisualizer.failureProtectionConfigurationVisualizer typename "\"inet.visualizer.canvas.configurator.FailureProtectionConfigurationCanvasVisualizer\""
par OspfRouting.integratedVisualizer.canvasVisualizer.failureProtectionConfigurationVisualizer visualizationTargetModule "\"^.^.^\""
par OspfRouting.integratedVisualizer.canvasVisualizer.failureProtectionConfigurationVisualizer visualizationSubjectModule "\"^.^.^\""
par OspfRouting.integratedVisualizer.canvasVisualizer.failureProtectionConfigurationVisualizer tags "\"\""
par OspfRouting.integratedVisualizer.canvasVisualizer.failureProtectionConfigurationVisualizer displayTrees false
par OspfRouting.integratedVisualizer.canvasVisualizer.failureProtectionConfigurationVisualizer lineColor "\"dark\""
attr enum light,dark
par OspfRouting.integratedVisualizer.canvasVisualizer.failureProtectionConfigurationVisualizer lineStyle "\"solid\""
par OspfRouting.integratedVisualizer.canvasVisualizer.failureProtectionConfigurationVisualizer lineWidth 3
par OspfRouting.integratedVisualizer.canvasVisualizer.failureProtectionConfigurationVisualizer lineSmooth false
par OspfRouting.integratedVisualizer.canvasVisualizer.failureProtectionConfigurationVisualizer lineShift 16
par OspfRouting.integratedVisualizer.canvasVisualizer.failureProtectionConfigurationVisualizer lineShiftMode "\"normal\""
par OspfRouting.integratedVisualizer.canvasVisualizer.failureProtectionConfigurationVisualizer lineContactSpacing 3
par OspfRouting.integratedVisualizer.canvasVisualizer.failureProtectionConfigurationVisualizer lineContactMode "\"rectangular\""
attr enum circular,rectangular
par OspfRouting.integratedVisualizer.canvasVisualizer.failureProtectionConfigurationVisualizer failureProtectionConfiguratorModule "\"failureProtectionConfigurator\""
par OspfRouting.integratedVisualizer.canvasVisualizer.failureProtectionConfigurationVisualizer streamFilter "\"*\""
par OspfRouting.integratedVisualizer.canvasVisualizer.failureProtectionConfigurationVisualizer zIndex 3
par OspfRouting.integratedVisualizer.canvasVisualizer.streamRedundancyConfigurationVisualizer typename "\"inet.visualizer.canvas.configurator.StreamRedundancyConfigurationCanvasVisualizer\""
par OspfRouting.integratedVisualizer.canvasVisualizer.streamRedundancyConfigurationVisualizer visualizationTargetModule "\"^.^.^\""
par OspfRouting.integratedVisualizer.canvasVisualizer.streamRedundancyConfigurationVisualizer visualizationSubjectModule "\"^.^.^\""
par OspfRouting.integratedVisualizer.canvasVisualizer.streamRedundancyConfigurationVisualizer tags "\"\""
par OspfRouting.integratedVisualizer.canvasVisualizer.streamRedundancyConfigurationVisualizer displayTrees false
par OspfRouting.integratedVisualizer.canvasVisualizer.streamRedundancyConfigurationVisualizer lineColor "\"dark\""
attr enum light,dark
par OspfRouting.integratedVisualizer.canvasVisualizer.streamRedundancyConfigurationVisualizer lineStyle "\"solid\""
par OspfRouting.integratedVisualizer.canvasVisualizer.streamRedundancyConfigurationVisualizer lineWidth 3
par OspfRouting.integratedVisualizer.canvasVisualizer.streamRedundancyConfigurationVisualizer lineSmooth false
par OspfRouting.integratedVisualizer.canvasVisualizer.streamRedundancyConfigurationVisualizer lineShift 16
par OspfRouting.integratedVisualizer.canvasVisualizer.streamRedundancyConfigurationVisualizer lineShiftMode "\"normal\""
par OspfRouting.integratedVisualizer.canvasVisualizer.streamRedundancyConfigurationVisualizer lineContactSpacing 3
par OspfRouting.integratedVisualizer.canvasVisualizer.streamRedundancyConfigurationVisualizer lineContactMode "\"rectangular\""
attr enum circular,rectangular
par OspfRouting.integratedVisualizer.canvasVisualizer.streamRedundancyConfigurationVisualizer streamRedundancyConfiguratorModule "\"streamRedundancyConfigurator\""
par OspfRouting.integratedVisualizer.canvasVisualizer.streamRedundancyConfigurationVisualizer streamFilter "\"*\""
par OspfRouting.integratedVisualizer.canvasVisualizer.streamRedundancyConfigurationVisualizer zIndex 3
par OspfRouting.integratedVisualizer.canvasVisualizer typename "\"inet.visualizer.canvas.integrated.IntegratedCanvasVisualizer\""
par OspfRouting.integratedVisualizer typename "\"inet.visualizer.common.IntegratedVisualizer\""
par OspfRouting.scenarioManager typename "\"inet.common.scenario.ScenarioManager\""
par OspfRouting.scenarioManager script "<scenario>...</scenario> at D:/omnetpp-6.0.1/samples/inet4.4/examples/OspfRouting/\\scenario1.xml:1"
par OspfRouting typename "\"inet.examples.OspfRouting.OspfRouting\""

